/*---------------------------------------------------------------------------*\
| =========                 |                                                 |
| \\      /  F ield         | OpenFOAM: The Open Source CFD Toolbox           |
|  \\    /   O peration     | Version:  2312                                  |
|   \\  /    A nd           | Website:  www.openfoam.com                      |
|    \\/     M anipulation  |                                                 |
\*---------------------------------------------------------------------------*/
Build  : _c39a0f64-20231220 OPENFOAM=2312 version=2312
Arch   : "LSB;label=32;scalar=64"
Exec   : buoyantSimpleFoam -parallel
Date   : Jun 04 2024
Time   : 00:13:36
Host   : kamakiri
PID    : 219123
I/O    : uncollated
Case   : /mnt/c/work/001_CAE/openfoam/20240221_gijyutsusyo/Cylinder_blockMesh_heatWallFlux
nProcs : 4
Hosts  :
(
    (kamakiri 4)
)
Pstream initialized with:
    floatTransfer      : false
    nProcsSimpleSum    : 0
    nonBlockingExchange: 0 (tuning: 0)
    exchange algorithm : 0
    commsType          : nonBlocking
    polling iterations : 0
trapFpe: Floating point exception trapping enabled (FOAM_SIGFPE).
fileModificationChecking : Monitoring run-time modified files using timeStampMaster (fileModificationSkew 5, maxFileModificationPolls 20)
allowSystemOperations : Allowing user-supplied system call operations

// * * * * * * * * * * * * * * * * * * * * * * * * * * * * * * * * * * * * * //
Create time

Create mesh for time = 0


SIMPLE: convergence criteria
    field p_rgh	 tolerance 1e-05
    field U	 tolerance 1e-06
    field h	 tolerance 1e-05
    field "k|epsilon|omega|nuTilda"	 tolerance 1e-06

Reading thermophysical properties

Selecting thermodynamics package 
{
    type            heRhoThermo;
    mixture         pureMixture;
    transport       const;
    thermo          hConst;
    equationOfState perfectGas;
    specie          specie;
    energy          sensibleEnthalpy;
}

Reading field U

Reading/calculating face flux field phi

Creating turbulence model

Selecting turbulence model type laminar
Selecting laminar stress model Stokes

Reading g

Reading hRef
Calculating field g.h

Reading field p_rgh

No MRF models present

Radiation model not active: radiationProperties not found
Selecting radiationModel none
No finite volume options present

Starting time loop

wallHeatFlux wallHeatFlux:
    processing all (1) wall patches

Selecting heat transfer coefficient model fixedReferenceTemperature
Time = 1

smoothSolver:  Solving for Ux, Initial residual = 0.193829, Final residual = 0.0165588, No Iterations 1
smoothSolver:  Solving for Uy, Initial residual = 0.193478, Final residual = 0.0161229, No Iterations 1
smoothSolver:  Solving for Uz, Initial residual = 1, Final residual = 0.0216912, No Iterations 2
smoothSolver:  Solving for h, Initial residual = 1, Final residual = 0.0373183, No Iterations 3
GAMG:  Solving for p_rgh, Initial residual = 0.999959, Final residual = 0.00982175, No Iterations 294
time step continuity errors : sum local = 6.49163e-05, global = -2.04051e-06, cumulative = -2.04051e-06
rho min/max : 1.19504 1.20452
ExecutionTime = 1.78 s  ClockTime = 3 s

--> FOAM Warning : 
    From virtual bool Foam::functionObjects::fieldSelection::checkSelection()
    in file functionObjects/fieldSelections/fieldSelection/fieldSelection.C at line 179
    Field p not found
--> FOAM Warning : 
    From virtual bool Foam::functionObjects::solverFieldSelection::updateSelection()
    in file functionObjects/fieldSelections/solverFieldSelection/solverFieldSelection.C at line 82
    Valid solver fields are: 3(U h p_rgh)    min/max/integ(walls) = 100, 100, 7.53638
Time = 2

smoothSolver:  Solving for Ux, Initial residual = 0.574147, Final residual = 0.0448493, No Iterations 2
smoothSolver:  Solving for Uy, Initial residual = 0.574187, Final residual = 0.0448568, No Iterations 2
smoothSolver:  Solving for Uz, Initial residual = 0.234867, Final residual = 0.0106476, No Iterations 2
smoothSolver:  Solving for h, Initial residual = 0.221594, Final residual = 0.00745696, No Iterations 3
GAMG:  Solving for p_rgh, Initial residual = 0.0159794, Final residual = 0.000159408, No Iterations 264
time step continuity errors : sum local = 6.39194e-05, global = -1.72622e-06, cumulative = -3.76673e-06
rho min/max : 1.19124 1.20453
ExecutionTime = 3.14 s  ClockTime = 4 s

    min/max/integ(walls) = 100, 100, 7.53638
Time = 3

smoothSolver:  Solving for Ux, Initial residual = 0.341174, Final residual = 0.0261373, No Iterations 2
smoothSolver:  Solving for Uy, Initial residual = 0.341116, Final residual = 0.0261362, No Iterations 2
smoothSolver:  Solving for Uz, Initial residual = 0.15746, Final residual = 0.0102142, No Iterations 2
smoothSolver:  Solving for h, Initial residual = 0.140959, Final residual = 0.00448627, No Iterations 3
GAMG:  Solving for p_rgh, Initial residual = 0.0104389, Final residual = 0.000104057, No Iterations 252
time step continuity errors : sum local = 6.25512e-05, global = 1.84978e-06, cumulative = -1.91695e-06
rho min/max : 1.18838 1.20453
ExecutionTime = 4.34 s  ClockTime = 5 s

    min/max/integ(walls) = 100, 100, 7.53638
Time = 4

smoothSolver:  Solving for Ux, Initial residual = 0.172661, Final residual = 0.0129035, No Iterations 2
smoothSolver:  Solving for Uy, Initial residual = 0.172819, Final residual = 0.0129177, No Iterations 2
smoothSolver:  Solving for Uz, Initial residual = 0.0939674, Final residual = 0.00628479, No Iterations 2
smoothSolver:  Solving for h, Initial residual = 0.103979, Final residual = 0.0102214, No Iterations 2
GAMG:  Solving for p_rgh, Initial residual = 0.0167804, Final residual = 0.000164392, No Iterations 274
time step continuity errors : sum local = 7.31253e-05, global = 2.22818e-06, cumulative = 3.11232e-07
rho min/max : 1.18617 1.20453
ExecutionTime = 5.7 s  ClockTime = 7 s

    min/max/integ(walls) = 100, 100, 7.53638
Time = 5

smoothSolver:  Solving for Ux, Initial residual = 0.0614801, Final residual = 0.00440702, No Iterations 2
smoothSolver:  Solving for Uy, Initial residual = 0.0616159, Final residual = 0.00441997, No Iterations 2
smoothSolver:  Solving for Uz, Initial residual = 0.0487947, Final residual = 0.00292119, No Iterations 2
smoothSolver:  Solving for h, Initial residual = 0.0846888, Final residual = 0.00819965, No Iterations 2
GAMG:  Solving for p_rgh, Initial residual = 0.0377853, Final residual = 0.000370712, No Iterations 254
time step continuity errors : sum local = 5.79208e-05, global = 1.75541e-06, cumulative = 2.06665e-06
rho min/max : 1.18423 1.20452
ExecutionTime = 6.98 s  ClockTime = 8 s

    min/max/integ(walls) = 100, 100, 7.53638
Time = 6

smoothSolver:  Solving for Ux, Initial residual = 0.0251769, Final residual = 0.00166521, No Iterations 2
smoothSolver:  Solving for Uy, Initial residual = 0.025156, Final residual = 0.00166402, No Iterations 2
smoothSolver:  Solving for Uz, Initial residual = 0.0405118, Final residual = 0.002593, No Iterations 2
smoothSolver:  Solving for h, Initial residual = 0.0719498, Final residual = 0.00688881, No Iterations 2
GAMG:  Solving for p_rgh, Initial residual = 0.240772, Final residual = 0.00239977, No Iterations 224
time step continuity errors : sum local = 4.32061e-05, global = -1.11001e-06, cumulative = 9.56634e-07
rho min/max : 1.18247 1.20452
ExecutionTime = 8.1 s  ClockTime = 9 s

    min/max/integ(walls) = 100, 100, 7.53638
Time = 7

smoothSolver:  Solving for Ux, Initial residual = 0.0266485, Final residual = 0.00170355, No Iterations 2
smoothSolver:  Solving for Uy, Initial residual = 0.0268767, Final residual = 0.00172444, No Iterations 2
smoothSolver:  Solving for Uz, Initial residual = 0.0288968, Final residual = 0.00193098, No Iterations 2
smoothSolver:  Solving for h, Initial residual = 0.0628744, Final residual = 0.00596812, No Iterations 2
GAMG:  Solving for p_rgh, Initial residual = 0.073987, Final residual = 0.000731386, No Iterations 256
time step continuity errors : sum local = 5.03219e-05, global = -1.32891e-06, cumulative = -3.72275e-07
rho min/max : 1.18086 1.20452
ExecutionTime = 9.49 s  ClockTime = 10 s

    min/max/integ(walls) = 100, 100, 7.53638
Time = 8

smoothSolver:  Solving for Ux, Initial residual = 0.0392556, Final residual = 0.00301295, No Iterations 2
smoothSolver:  Solving for Uy, Initial residual = 0.0393965, Final residual = 0.00302599, No Iterations 2
smoothSolver:  Solving for Uz, Initial residual = 0.0249516, Final residual = 0.00185245, No Iterations 2
smoothSolver:  Solving for h, Initial residual = 0.056015, Final residual = 0.00528073, No Iterations 2
GAMG:  Solving for p_rgh, Initial residual = 0.0176306, Final residual = 0.000171584, No Iterations 238
time step continuity errors : sum local = 3.48979e-05, global = -1.01674e-06, cumulative = -1.38901e-06
rho min/max : 1.17935 1.20452
ExecutionTime = 10.75 s  ClockTime = 12 s

    min/max/integ(walls) = 100, 100, 7.53638
Time = 9

smoothSolver:  Solving for Ux, Initial residual = 0.0510748, Final residual = 0.00412262, No Iterations 2
smoothSolver:  Solving for Uy, Initial residual = 0.0510713, Final residual = 0.00412226, No Iterations 2
smoothSolver:  Solving for Uz, Initial residual = 0.025872, Final residual = 0.00209266, No Iterations 2
smoothSolver:  Solving for h, Initial residual = 0.0507866, Final residual = 0.00476139, No Iterations 2
GAMG:  Solving for p_rgh, Initial residual = 0.0115902, Final residual = 0.000111307, No Iterations 230
time step continuity errors : sum local = 2.93492e-05, global = 7.70817e-07, cumulative = -6.18193e-07
rho min/max : 1.17794 1.20452
ExecutionTime = 11.96 s  ClockTime = 13 s

    min/max/integ(walls) = 100, 100, 7.53638
Time = 10

smoothSolver:  Solving for Ux, Initial residual = 0.0425127, Final residual = 0.00338931, No Iterations 2
smoothSolver:  Solving for Uy, Initial residual = 0.0426749, Final residual = 0.00340329, No Iterations 2
smoothSolver:  Solving for Uz, Initial residual = 0.0213278, Final residual = 0.0016455, No Iterations 2
smoothSolver:  Solving for h, Initial residual = 0.0464916, Final residual = 0.00433876, No Iterations 2
GAMG:  Solving for p_rgh, Initial residual = 0.0141087, Final residual = 0.000139364, No Iterations 256
time step continuity errors : sum local = 3.02932e-05, global = 9.12731e-07, cumulative = 2.94537e-07
rho min/max : 1.1766 1.20452
ExecutionTime = 13.25 s  ClockTime = 14 s

    min/max/integ(walls) = 100, 100, 7.53638
Time = 11

smoothSolver:  Solving for Ux, Initial residual = 0.024703, Final residual = 0.00190701, No Iterations 2
smoothSolver:  Solving for Uy, Initial residual = 0.0247939, Final residual = 0.00191529, No Iterations 2
smoothSolver:  Solving for Uz, Initial residual = 0.0181709, Final residual = 0.00129455, No Iterations 2
smoothSolver:  Solving for h, Initial residual = 0.0429895, Final residual = 0.00399624, No Iterations 2
GAMG:  Solving for p_rgh, Initial residual = 0.0160945, Final residual = 0.000160313, No Iterations 240
time step continuity errors : sum local = 2.16861e-05, global = 6.40705e-07, cumulative = 9.35242e-07
rho min/max : 1.17533 1.20452
ExecutionTime = 14.52 s  ClockTime = 15 s

    min/max/integ(walls) = 100, 100, 7.53638
Time = 12

smoothSolver:  Solving for Ux, Initial residual = 0.0161134, Final residual = 0.00119283, No Iterations 2
smoothSolver:  Solving for Uy, Initial residual = 0.0161261, Final residual = 0.00119402, No Iterations 2
smoothSolver:  Solving for Uz, Initial residual = 0.016979, Final residual = 0.0012134, No Iterations 2
smoothSolver:  Solving for h, Initial residual = 0.0400986, Final residual = 0.00371482, No Iterations 2
GAMG:  Solving for p_rgh, Initial residual = 0.0186679, Final residual = 0.000181968, No Iterations 212
time step continuity errors : sum local = 1.75107e-05, global = -5.00978e-07, cumulative = 4.34264e-07
rho min/max : 1.17411 1.20452
ExecutionTime = 15.69 s  ClockTime = 17 s

    min/max/integ(walls) = 100, 100, 7.53638
Time = 13

smoothSolver:  Solving for Ux, Initial residual = 0.0174574, Final residual = 0.00129214, No Iterations 2
smoothSolver:  Solving for Uy, Initial residual = 0.0175869, Final residual = 0.00130314, No Iterations 2
smoothSolver:  Solving for Uz, Initial residual = 0.0144341, Final residual = 0.00105961, No Iterations 2
smoothSolver:  Solving for h, Initial residual = 0.0376689, Final residual = 0.00347931, No Iterations 2
GAMG:  Solving for p_rgh, Initial residual = 0.0152449, Final residual = 0.000150196, No Iterations 246
time step continuity errors : sum local = 1.73378e-05, global = -5.17212e-07, cumulative = -8.29481e-08
rho min/max : 1.17294 1.20452
ExecutionTime = 17.42 s  ClockTime = 18 s

    min/max/integ(walls) = 100, 100, 7.53638
Time = 14

smoothSolver:  Solving for Ux, Initial residual = 0.0198351, Final residual = 0.00151257, No Iterations 2
smoothSolver:  Solving for Uy, Initial residual = 0.0198866, Final residual = 0.00151744, No Iterations 2
smoothSolver:  Solving for Uz, Initial residual = 0.0124027, Final residual = 0.000963377, No Iterations 2
smoothSolver:  Solving for h, Initial residual = 0.0355256, Final residual = 0.00327272, No Iterations 2
GAMG:  Solving for p_rgh, Initial residual = 0.00906691, Final residual = 8.86774e-05, No Iterations 220
time step continuity errors : sum local = 1.36134e-05, global = -3.61397e-07, cumulative = -4.44345e-07
rho min/max : 1.17181 1.20452
ExecutionTime = 18.73 s  ClockTime = 20 s

    min/max/integ(walls) = 100, 100, 7.53638
Time = 15

smoothSolver:  Solving for Ux, Initial residual = 0.0204945, Final residual = 0.00161598, No Iterations 2
smoothSolver:  Solving for Uy, Initial residual = 0.0205074, Final residual = 0.00161711, No Iterations 2
smoothSolver:  Solving for Uz, Initial residual = 0.0115688, Final residual = 0.000925036, No Iterations 2
smoothSolver:  Solving for h, Initial residual = 0.0336746, Final residual = 0.00309502, No Iterations 2
GAMG:  Solving for p_rgh, Initial residual = 0.00695714, Final residual = 6.79146e-05, No Iterations 222
time step continuity errors : sum local = 1.14438e-05, global = 2.77226e-07, cumulative = -1.67119e-07
rho min/max : 1.17072 1.20452
ExecutionTime = 19.88 s  ClockTime = 21 s

    min/max/integ(walls) = 100, 100, 7.53638
Time = 16

smoothSolver:  Solving for Ux, Initial residual = 0.0185912, Final residual = 0.00148766, No Iterations 2
smoothSolver:  Solving for Uy, Initial residual = 0.0186752, Final residual = 0.00149475, No Iterations 2
smoothSolver:  Solving for Uz, Initial residual = 0.0108833, Final residual = 0.000848494, No Iterations 2
smoothSolver:  Solving for h, Initial residual = 0.0320482, Final residual = 0.00293947, No Iterations 2
GAMG:  Solving for p_rgh, Initial residual = 0.00677367, Final residual = 6.71304e-05, No Iterations 250
time step continuity errors : sum local = 1.02628e-05, global = 3.09342e-07, cumulative = 1.42224e-07
rho min/max : 1.16966 1.20452
ExecutionTime = 21.15 s  ClockTime = 22 s

    min/max/integ(walls) = 100, 100, 7.53638
Time = 17

smoothSolver:  Solving for Ux, Initial residual = 0.0143309, Final residual = 0.00113952, No Iterations 2
smoothSolver:  Solving for Uy, Initial residual = 0.0143554, Final residual = 0.00114218, No Iterations 2
smoothSolver:  Solving for Uz, Initial residual = 0.0105269, Final residual = 0.000794242, No Iterations 2
smoothSolver:  Solving for h, Initial residual = 0.0305702, Final residual = 0.00279871, No Iterations 2
GAMG:  Solving for p_rgh, Initial residual = 0.0066858, Final residual = 6.54723e-05, No Iterations 228
time step continuity errors : sum local = 8.39921e-06, global = 2.46806e-07, cumulative = 3.8903e-07
rho min/max : 1.16864 1.20452
ExecutionTime = 22.31 s  ClockTime = 23 s

    min/max/integ(walls) = 100, 100, 7.53638
Time = 18

smoothSolver:  Solving for Ux, Initial residual = 0.0120214, Final residual = 0.000951439, No Iterations 2
smoothSolver:  Solving for Uy, Initial residual = 0.0120316, Final residual = 0.000952498, No Iterations 2
smoothSolver:  Solving for Uz, Initial residual = 0.0100368, Final residual = 0.00075679, No Iterations 2
smoothSolver:  Solving for h, Initial residual = 0.0292618, Final residual = 0.0026744, No Iterations 2
GAMG:  Solving for p_rgh, Initial residual = 0.00557906, Final residual = 5.35546e-05, No Iterations 200
time step continuity errors : sum local = 6.26705e-06, global = -1.55843e-07, cumulative = 2.33187e-07
rho min/max : 1.16764 1.20452
ExecutionTime = 23.36 s  ClockTime = 24 s

    min/max/integ(walls) = 100, 100, 7.53638
Time = 19

smoothSolver:  Solving for Ux, Initial residual = 0.0120024, Final residual = 0.000950895, No Iterations 2
smoothSolver:  Solving for Uy, Initial residual = 0.0120601, Final residual = 0.00095566, No Iterations 2
smoothSolver:  Solving for Uz, Initial residual = 0.00903559, Final residual = 0.000694489, No Iterations 2
smoothSolver:  Solving for h, Initial residual = 0.0280953, Final residual = 0.00256385, No Iterations 2
GAMG:  Solving for p_rgh, Initial residual = 0.00507203, Final residual = 4.89311e-05, No Iterations 234
time step continuity errors : sum local = 5.98583e-06, global = -1.7488e-07, cumulative = 5.8307e-08
rho min/max : 1.16667 1.20452
ExecutionTime = 24.6 s  ClockTime = 26 s

    min/max/integ(walls) = 100, 100, 7.53638
Time = 20

smoothSolver:  Solving for Ux, Initial residual = 0.0118645, Final residual = 0.000939419, No Iterations 2
smoothSolver:  Solving for Uy, Initial residual = 0.0118792, Final residual = 0.000940845, No Iterations 2
smoothSolver:  Solving for Uz, Initial residual = 0.00812745, Final residual = 0.00063883, No Iterations 2
smoothSolver:  Solving for h, Initial residual = 0.0270491, Final residual = 0.00246492, No Iterations 2
GAMG:  Solving for p_rgh, Initial residual = 0.00397162, Final residual = 3.83044e-05, No Iterations 198
time step continuity errors : sum local = 5.0745e-06, global = -1.46715e-07, cumulative = -8.84081e-08
rho min/max : 1.16573 1.20452
ExecutionTime = 25.87 s  ClockTime = 27 s

    min/max/integ(walls) = 100, 100, 7.53638
Time = 21

smoothSolver:  Solving for Ux, Initial residual = 0.0113145, Final residual = 0.000915786, No Iterations 2
smoothSolver:  Solving for Uy, Initial residual = 0.0113238, Final residual = 0.000916627, No Iterations 2
smoothSolver:  Solving for Uz, Initial residual = 0.00758555, Final residual = 0.000601996, No Iterations 2
smoothSolver:  Solving for h, Initial residual = 0.0261054, Final residual = 0.0023759, No Iterations 2
GAMG:  Solving for p_rgh, Initial residual = 0.00331333, Final residual = 3.26787e-05, No Iterations 218
time step continuity errors : sum local = 4.4258e-06, global = 1.24543e-07, cumulative = 3.61346e-08
rho min/max : 1.16481 1.20452
ExecutionTime = 27.19 s  ClockTime = 28 s

    min/max/integ(walls) = 100, 100, 7.53638
Time = 22

smoothSolver:  Solving for Ux, Initial residual = 0.0105054, Final residual = 0.000865043, No Iterations 2
smoothSolver:  Solving for Uy, Initial residual = 0.0105423, Final residual = 0.000868034, No Iterations 2
smoothSolver:  Solving for Uz, Initial residual = 0.00729484, Final residual = 0.000573304, No Iterations 2
smoothSolver:  Solving for h, Initial residual = 0.0252498, Final residual = 0.00229533, No Iterations 2
GAMG:  Solving for p_rgh, Initial residual = 0.00316384, Final residual = 3.13503e-05, No Iterations 240
time step continuity errors : sum local = 4.07104e-06, global = 1.19663e-07, cumulative = 1.55798e-07
rho min/max : 1.1639 1.20452
ExecutionTime = 28.55 s  ClockTime = 30 s

    min/max/integ(walls) = 100, 100, 7.53638
Time = 23

smoothSolver:  Solving for Ux, Initial residual = 0.00925014, Final residual = 0.000759949, No Iterations 2
smoothSolver:  Solving for Uy, Initial residual = 0.00925654, Final residual = 0.000760512, No Iterations 2
smoothSolver:  Solving for Uz, Initial residual = 0.00711353, Final residual = 0.000552727, No Iterations 2
smoothSolver:  Solving for h, Initial residual = 0.02447, Final residual = 0.00222204, No Iterations 2
GAMG:  Solving for p_rgh, Initial residual = 0.00277995, Final residual = 2.74274e-05, No Iterations 220
time step continuity errors : sum local = 3.34711e-06, global = 9.58682e-08, cumulative = 2.51666e-07
rho min/max : 1.16302 1.20452
ExecutionTime = 30.05 s  ClockTime = 31 s

    min/max/integ(walls) = 100, 100, 7.53638
Time = 24

smoothSolver:  Solving for Ux, Initial residual = 0.00857302, Final residual = 0.000700179, No Iterations 2
smoothSolver:  Solving for Uy, Initial residual = 0.00857974, Final residual = 0.000700786, No Iterations 2
smoothSolver:  Solving for Uz, Initial residual = 0.0068074, Final residual = 0.000528353, No Iterations 2
smoothSolver:  Solving for h, Initial residual = 0.023754, Final residual = 0.00215486, No Iterations 2
GAMG:  Solving for p_rgh, Initial residual = 0.0024118, Final residual = 2.34954e-05, No Iterations 164
time step continuity errors : sum local = 2.78004e-06, global = -6.63785e-08, cumulative = 1.85287e-07
rho min/max : 1.16216 1.20452
ExecutionTime = 30.93 s  ClockTime = 32 s

    min/max/integ(walls) = 100, 100, 7.53638
Time = 25

smoothSolver:  Solving for Ux, Initial residual = 0.00834137, Final residual = 0.000677877, No Iterations 2
smoothSolver:  Solving for Uy, Initial residual = 0.00836563, Final residual = 0.000679853, No Iterations 2
smoothSolver:  Solving for Uz, Initial residual = 0.00634665, Final residual = 0.00049696, No Iterations 2
smoothSolver:  Solving for h, Initial residual = 0.0230768, Final residual = 0.00209149, No Iterations 2
GAMG:  Solving for p_rgh, Initial residual = 0.00217124, Final residual = 2.14312e-05, No Iterations 204
time step continuity errors : sum local = 2.55982e-06, global = -7.17158e-08, cumulative = 1.13572e-07
rho min/max : 1.16131 1.20452
ExecutionTime = 31.97 s  ClockTime = 33 s

    min/max/integ(walls) = 100, 100, 7.53638
Time = 26

smoothSolver:  Solving for Ux, Initial residual = 0.00795416, Final residual = 0.000646352, No Iterations 2
smoothSolver:  Solving for Uy, Initial residual = 0.00795838, Final residual = 0.000646728, No Iterations 2
smoothSolver:  Solving for Uz, Initial residual = 0.00589916, Final residual = 0.000466565, No Iterations 2
smoothSolver:  Solving for h, Initial residual = 0.0224503, Final residual = 0.00203294, No Iterations 2
GAMG:  Solving for p_rgh, Initial residual = 0.0018578, Final residual = 1.85545e-05, No Iterations 140
time step continuity errors : sum local = 2.25659e-06, global = -7.8644e-08, cumulative = 3.49277e-08
rho min/max : 1.16048 1.20452
ExecutionTime = 32.73 s  ClockTime = 34 s

    min/max/integ(walls) = 100, 100, 7.53638
Time = 27

smoothSolver:  Solving for Ux, Initial residual = 0.00756159, Final residual = 0.000621834, No Iterations 2
smoothSolver:  Solving for Uy, Initial residual = 0.00756747, Final residual = 0.000622315, No Iterations 2
smoothSolver:  Solving for Uz, Initial residual = 0.00558464, Final residual = 0.000443161, No Iterations 2
smoothSolver:  Solving for h, Initial residual = 0.0218712, Final residual = 0.0019789, No Iterations 2
GAMG:  Solving for p_rgh, Initial residual = 0.00166103, Final residual = 1.65529e-05, No Iterations 214
time step continuity errors : sum local = 2.02223e-06, global = 4.88307e-08, cumulative = 8.37583e-08
rho min/max : 1.15966 1.20452
ExecutionTime = 33.9 s  ClockTime = 35 s

    min/max/integ(walls) = 100, 100, 7.53638
Time = 28

smoothSolver:  Solving for Ux, Initial residual = 0.00717573, Final residual = 0.00059381, No Iterations 2
smoothSolver:  Solving for Uy, Initial residual = 0.00719175, Final residual = 0.000595144, No Iterations 2
smoothSolver:  Solving for Uz, Initial residual = 0.00538419, Final residual = 0.000425908, No Iterations 2
smoothSolver:  Solving for h, Initial residual = 0.0213218, Final residual = 0.00192774, No Iterations 2
GAMG:  Solving for p_rgh, Initial residual = 0.00149586, Final residual = 1.46863e-05, No Iterations 232
time step continuity errors : sum local = 1.763e-06, global = 5.11756e-08, cumulative = 1.34934e-07
rho min/max : 1.15886 1.20452
ExecutionTime = 35.22 s  ClockTime = 36 s

    min/max/integ(walls) = 100, 100, 7.53638
Time = 29

smoothSolver:  Solving for Ux, Initial residual = 0.00671628, Final residual = 0.000554854, No Iterations 2
smoothSolver:  Solving for Uy, Initial residual = 0.00671726, Final residual = 0.000554969, No Iterations 2
smoothSolver:  Solving for Uz, Initial residual = 0.00520622, Final residual = 0.000410394, No Iterations 2
smoothSolver:  Solving for h, Initial residual = 0.0208032, Final residual = 0.00187952, No Iterations 2
GAMG:  Solving for p_rgh, Initial residual = 0.00135488, Final residual = 1.3219e-05, No Iterations 216
time step continuity errors : sum local = 1.55082e-06, global = 3.98321e-08, cumulative = 1.74766e-07
rho min/max : 1.15807 1.20452
ExecutionTime = 36.36 s  ClockTime = 38 s

    min/max/integ(walls) = 100, 100, 7.53638
Time = 30

smoothSolver:  Solving for Ux, Initial residual = 0.00644896, Final residual = 0.000530895, No Iterations 2
smoothSolver:  Solving for Uy, Initial residual = 0.00645278, Final residual = 0.000531185, No Iterations 2
smoothSolver:  Solving for Uz, Initial residual = 0.00498693, Final residual = 0.000393287, No Iterations 2
smoothSolver:  Solving for h, Initial residual = 0.0203199, Final residual = 0.00183464, No Iterations 2
GAMG:  Solving for p_rgh, Initial residual = 0.00117555, Final residual = 1.16983e-05, No Iterations 158
time step continuity errors : sum local = 1.35515e-06, global = 4.05256e-08, cumulative = 2.15292e-07
rho min/max : 1.1573 1.20452
ExecutionTime = 37.21 s  ClockTime = 38 s

    min/max/integ(walls) = 100, 100, 7.53638
Time = 31

smoothSolver:  Solving for Ux, Initial residual = 0.00622993, Final residual = 0.000510897, No Iterations 2
smoothSolver:  Solving for Uy, Initial residual = 0.00623898, Final residual = 0.000511582, No Iterations 2
smoothSolver:  Solving for Uz, Initial residual = 0.00473302, Final residual = 0.000374824, No Iterations 2
smoothSolver:  Solving for h, Initial residual = 0.0198685, Final residual = 0.00179276, No Iterations 2
GAMG:  Solving for p_rgh, Initial residual = 0.00108453, Final residual = 1.04912e-05, No Iterations 120
time step continuity errors : sum local = 1.21598e-06, global = -2.98731e-08, cumulative = 1.85419e-07
rho min/max : 1.15654 1.20452
ExecutionTime = 37.83 s  ClockTime = 39 s

    min/max/integ(walls) = 100, 100, 7.53638
Time = 32

smoothSolver:  Solving for Ux, Initial residual = 0.00594951, Final residual = 0.000488529, No Iterations 2
smoothSolver:  Solving for Uy, Initial residual = 0.00595107, Final residual = 0.00048864, No Iterations 2
smoothSolver:  Solving for Uz, Initial residual = 0.00449245, Final residual = 0.000357276, No Iterations 2
smoothSolver:  Solving for h, Initial residual = 0.0194457, Final residual = 0.00175358, No Iterations 2
GAMG:  Solving for p_rgh, Initial residual = 0.00103181, Final residual = 1.00209e-05, No Iterations 170
time step continuity errors : sum local = 1.16577e-06, global = 2.21419e-08, cumulative = 2.0756e-07
rho min/max : 1.15578 1.20452
ExecutionTime = 38.74 s  ClockTime = 40 s

    min/max/integ(walls) = 100, 100, 7.53638
Time = 33

smoothSolver:  Solving for Ux, Initial residual = 0.00568544, Final residual = 0.000470942, No Iterations 2
smoothSolver:  Solving for Uy, Initial residual = 0.00568823, Final residual = 0.000471164, No Iterations 2
smoothSolver:  Solving for Uz, Initial residual = 0.00429539, Final residual = 0.000342181, No Iterations 2
smoothSolver:  Solving for h, Initial residual = 0.0190489, Final residual = 0.00171684, No Iterations 2
GAMG:  Solving for p_rgh, Initial residual = 0.000907283, Final residual = 9.03364e-06, No Iterations 216
time step continuity errors : sum local = 1.05182e-06, global = 2.74975e-08, cumulative = 2.35058e-07
rho min/max : 1.15504 1.20452
ExecutionTime = 39.86 s  ClockTime = 41 s

    min/max/integ(walls) = 100, 100, 7.53638
Time = 34

smoothSolver:  Solving for Ux, Initial residual = 0.00544224, Final residual = 0.000452776, No Iterations 2
smoothSolver:  Solving for Uy, Initial residual = 0.00544823, Final residual = 0.000453246, No Iterations 2
smoothSolver:  Solving for Uz, Initial residual = 0.00413948, Final residual = 0.000329325, No Iterations 2
smoothSolver:  Solving for h, Initial residual = 0.0186758, Final residual = 0.00168233, No Iterations 2
GAMG:  Solving for p_rgh, Initial residual = 0.000840228, Final residual = 8.15717e-06, No Iterations 228
time step continuity errors : sum local = 9.44299e-07, global = 1.95118e-08, cumulative = 2.5457e-07
rho min/max : 1.15431 1.20452
ExecutionTime = 41.04 s  ClockTime = 42 s

    min/max/integ(walls) = 100, 100, 7.53638
Time = 35

smoothSolver:  Solving for Ux, Initial residual = 0.00521376, Final residual = 0.000433667, No Iterations 2
smoothSolver:  Solving for Uy, Initial residual = 0.00521343, Final residual = 0.000433629, No Iterations 2
smoothSolver:  Solving for Uz, Initial residual = 0.00399714, Final residual = 0.000317614, No Iterations 2
smoothSolver:  Solving for h, Initial residual = 0.0183244, Final residual = 0.00164985, No Iterations 2
GAMG:  Solving for p_rgh, Initial residual = 0.000779051, Final residual = 7.76695e-06, No Iterations 216
time step continuity errors : sum local = 8.93636e-07, global = 2.16239e-08, cumulative = 2.76194e-07
rho min/max : 1.1536 1.20452
ExecutionTime = 42.17 s  ClockTime = 43 s

    min/max/integ(walls) = 100, 100, 7.53638
Time = 36

smoothSolver:  Solving for Ux, Initial residual = 0.0050339, Final residual = 0.000418721, No Iterations 2
smoothSolver:  Solving for Uy, Initial residual = 0.00503537, Final residual = 0.000418819, No Iterations 2
smoothSolver:  Solving for Uz, Initial residual = 0.00384583, Final residual = 0.000305778, No Iterations 2
smoothSolver:  Solving for h, Initial residual = 0.0179929, Final residual = 0.00161923, No Iterations 2
GAMG:  Solving for p_rgh, Initial residual = 0.000714695, Final residual = 7.09947e-06, No Iterations 196
time step continuity errors : sum local = 8.12803e-07, global = 1.81005e-08, cumulative = 2.94294e-07
rho min/max : 1.15289 1.20452
ExecutionTime = 43.21 s  ClockTime = 44 s

    min/max/integ(walls) = 100, 100, 7.53638
Time = 37

smoothSolver:  Solving for Ux, Initial residual = 0.00484041, Final residual = 0.000402265, No Iterations 2
smoothSolver:  Solving for Uy, Initial residual = 0.00484319, Final residual = 0.000402451, No Iterations 2
smoothSolver:  Solving for Uz, Initial residual = 0.00368685, Final residual = 0.000293681, No Iterations 2
smoothSolver:  Solving for h, Initial residual = 0.0176795, Final residual = 0.00159031, No Iterations 2
GAMG:  Solving for p_rgh, Initial residual = 0.000667916, Final residual = 6.57285e-06, No Iterations 184
time step continuity errors : sum local = 7.51922e-07, global = 1.68005e-08, cumulative = 3.11095e-07
rho min/max : 1.15218 1.20452
ExecutionTime = 44.19 s  ClockTime = 45 s

    min/max/integ(walls) = 100, 100, 7.53638
Time = 38

smoothSolver:  Solving for Ux, Initial residual = 0.00464188, Final residual = 0.000385217, No Iterations 2
smoothSolver:  Solving for Uy, Initial residual = 0.0046415, Final residual = 0.000385145, No Iterations 2
smoothSolver:  Solving for Uz, Initial residual = 0.00353516, Final residual = 0.000282094, No Iterations 2
smoothSolver:  Solving for h, Initial residual = 0.0173829, Final residual = 0.00156296, No Iterations 2
GAMG:  Solving for p_rgh, Initial residual = 0.000630731, Final residual = 6.13608e-06, No Iterations 204
time step continuity errors : sum local = 7.08138e-07, global = 1.83208e-08, cumulative = 3.29415e-07
rho min/max : 1.15149 1.20452
ExecutionTime = 45.27 s  ClockTime = 47 s

    min/max/integ(walls) = 100, 100, 7.53638
Time = 39

smoothSolver:  Solving for Ux, Initial residual = 0.00446559, Final residual = 0.000370279, No Iterations 2
smoothSolver:  Solving for Uy, Initial residual = 0.00446642, Final residual = 0.000370324, No Iterations 2
smoothSolver:  Solving for Uz, Initial residual = 0.00340217, Final residual = 0.000271667, No Iterations 2
smoothSolver:  Solving for h, Initial residual = 0.0171018, Final residual = 0.00153704, No Iterations 2
GAMG:  Solving for p_rgh, Initial residual = 0.000600079, Final residual = 5.93988e-06, No Iterations 222
time step continuity errors : sum local = 6.82099e-07, global = 1.77269e-08, cumulative = 3.47142e-07
rho min/max : 1.15081 1.20452
ExecutionTime = 46.58 s  ClockTime = 48 s

    min/max/integ(walls) = 100, 100, 7.53638
Time = 40

smoothSolver:  Solving for Ux, Initial residual = 0.0042924, Final residual = 0.000356826, No Iterations 2
smoothSolver:  Solving for Uy, Initial residual = 0.00429355, Final residual = 0.000356902, No Iterations 2
smoothSolver:  Solving for Uz, Initial residual = 0.00328554, Final residual = 0.00026235, No Iterations 2
smoothSolver:  Solving for h, Initial residual = 0.0168349, Final residual = 0.00151246, No Iterations 2
GAMG:  Solving for p_rgh, Initial residual = 0.000561078, Final residual = 5.47902e-06, No Iterations 228
time step continuity errors : sum local = 6.33026e-07, global = 1.36861e-08, cumulative = 3.60828e-07
rho min/max : 1.15013 1.20452
ExecutionTime = 47.81 s  ClockTime = 49 s

    min/max/integ(walls) = 100, 100, 7.53638
Time = 41

smoothSolver:  Solving for Ux, Initial residual = 0.00413032, Final residual = 0.000344381, No Iterations 2
smoothSolver:  Solving for Uy, Initial residual = 0.00412986, Final residual = 0.000344319, No Iterations 2
smoothSolver:  Solving for Uz, Initial residual = 0.00317485, Final residual = 0.000253495, No Iterations 2
smoothSolver:  Solving for h, Initial residual = 0.0165811, Final residual = 0.0014891, No Iterations 2
GAMG:  Solving for p_rgh, Initial residual = 0.000511675, Final residual = 5.00113e-06, No Iterations 232
time step continuity errors : sum local = 5.8266e-07, global = 1.41537e-08, cumulative = 3.74982e-07
rho min/max : 1.14947 1.20452
ExecutionTime = 49.04 s  ClockTime = 50 s

    min/max/integ(walls) = 100, 100, 7.53638
Time = 42

smoothSolver:  Solving for Ux, Initial residual = 0.00398795, Final residual = 0.000332636, No Iterations 2
smoothSolver:  Solving for Uy, Initial residual = 0.00398817, Final residual = 0.00033263, No Iterations 2
smoothSolver:  Solving for Uz, Initial residual = 0.00306342, Final residual = 0.000244734, No Iterations 2
smoothSolver:  Solving for h, Initial residual = 0.0163393, Final residual = 0.00146685, No Iterations 2
GAMG:  Solving for p_rgh, Initial residual = 0.000470543, Final residual = 4.69988e-06, No Iterations 226
time step continuity errors : sum local = 5.47752e-07, global = 1.26084e-08, cumulative = 3.8759e-07
rho min/max : 1.14881 1.20452
ExecutionTime = 50.19 s  ClockTime = 51 s

    min/max/integ(walls) = 100, 100, 7.53638
Time = 43

smoothSolver:  Solving for Ux, Initial residual = 0.00384371, Final residual = 0.000320606, No Iterations 2
smoothSolver:  Solving for Uy, Initial residual = 0.00384396, Final residual = 0.000320594, No Iterations 2
smoothSolver:  Solving for Uz, Initial residual = 0.00295204, Final residual = 0.00023606, No Iterations 2
smoothSolver:  Solving for h, Initial residual = 0.0161088, Final residual = 0.00144566, No Iterations 2
GAMG:  Solving for p_rgh, Initial residual = 0.000447238, Final residual = 4.43506e-06, No Iterations 226
time step continuity errors : sum local = 5.18893e-07, global = 8.55332e-09, cumulative = 3.96144e-07
rho min/max : 1.14816 1.20452
ExecutionTime = 51.35 s  ClockTime = 53 s

    min/max/integ(walls) = 100, 100, 7.53638
Time = 44

smoothSolver:  Solving for Ux, Initial residual = 0.00370605, Final residual = 0.000308982, No Iterations 2
smoothSolver:  Solving for Uy, Initial residual = 0.00370559, Final residual = 0.000308914, No Iterations 2
smoothSolver:  Solving for Uz, Initial residual = 0.00284576, Final residual = 0.000227773, No Iterations 2
smoothSolver:  Solving for h, Initial residual = 0.0158888, Final residual = 0.00142544, No Iterations 2
GAMG:  Solving for p_rgh, Initial residual = 0.000436994, Final residual = 4.36678e-06, No Iterations 230
time step continuity errors : sum local = 5.11595e-07, global = 7.1208e-09, cumulative = 4.03265e-07
rho min/max : 1.14751 1.20452
ExecutionTime = 52.52 s  ClockTime = 54 s

    min/max/integ(walls) = 100, 100, 7.53638
Time = 45

smoothSolver:  Solving for Ux, Initial residual = 0.00358448, Final residual = 0.00029879, No Iterations 2
smoothSolver:  Solving for Uy, Initial residual = 0.00358454, Final residual = 0.000298768, No Iterations 2
smoothSolver:  Solving for Uz, Initial residual = 0.00274761, Final residual = 0.000220044, No Iterations 2
smoothSolver:  Solving for h, Initial residual = 0.0156776, Final residual = 0.00140604, No Iterations 2
GAMG:  Solving for p_rgh, Initial residual = 0.000429834, Final residual = 4.27801e-06, No Iterations 240
time step continuity errors : sum local = 5.02595e-07, global = 8.86781e-09, cumulative = 4.12132e-07
rho min/max : 1.14687 1.20452
ExecutionTime = 53.73 s  ClockTime = 55 s

    min/max/integ(walls) = 100, 100, 7.53638
Time = 46

smoothSolver:  Solving for Ux, Initial residual = 0.00346049, Final residual = 0.000288387, No Iterations 2
smoothSolver:  Solving for Uy, Initial residual = 0.00346051, Final residual = 0.000288362, No Iterations 2
smoothSolver:  Solving for Uz, Initial residual = 0.00265649, Final residual = 0.000212812, No Iterations 2
smoothSolver:  Solving for h, Initial residual = 0.015472, Final residual = 0.00138717, No Iterations 2
GAMG:  Solving for p_rgh, Initial residual = 0.000425509, Final residual = 4.23293e-06, No Iterations 240
time step continuity errors : sum local = 4.92642e-07, global = 5.35116e-09, cumulative = 4.17484e-07
rho min/max : 1.14624 1.20452
ExecutionTime = 54.93 s  ClockTime = 56 s

    min/max/integ(walls) = 100, 100, 7.53638
Time = 47

smoothSolver:  Solving for Ux, Initial residual = 0.00334165, Final residual = 0.000278384, No Iterations 2
smoothSolver:  Solving for Uy, Initial residual = 0.0033413, Final residual = 0.000278331, No Iterations 2
smoothSolver:  Solving for Uz, Initial residual = 0.00256932, Final residual = 0.000205894, No Iterations 2
smoothSolver:  Solving for h, Initial residual = 0.0152736, Final residual = 0.00136898, No Iterations 2
GAMG:  Solving for p_rgh, Initial residual = 0.000435293, Final residual = 4.35174e-06, No Iterations 230
time step continuity errors : sum local = 5.03427e-07, global = 1.04272e-08, cumulative = 4.27911e-07
rho min/max : 1.14562 1.20452
ExecutionTime = 56.11 s  ClockTime = 57 s

    min/max/integ(walls) = 100, 100, 7.53638
Time = 48

smoothSolver:  Solving for Ux, Initial residual = 0.00323769, Final residual = 0.000269631, No Iterations 2
smoothSolver:  Solving for Uy, Initial residual = 0.00323757, Final residual = 0.000269596, No Iterations 2
smoothSolver:  Solving for Uz, Initial residual = 0.00248418, Final residual = 0.000199172, No Iterations 2
smoothSolver:  Solving for h, Initial residual = 0.0150835, Final residual = 0.00135155, No Iterations 2
GAMG:  Solving for p_rgh, Initial residual = 0.000432132, Final residual = 4.31187e-06, No Iterations 232
time step continuity errors : sum local = 4.96795e-07, global = 8.9102e-09, cumulative = 4.36821e-07
rho min/max : 1.145 1.20452
ExecutionTime = 57.28 s  ClockTime = 59 s

    min/max/integ(walls) = 100, 100, 7.53638
Time = 49

smoothSolver:  Solving for Ux, Initial residual = 0.0031415, Final residual = 0.00026158, No Iterations 2
smoothSolver:  Solving for Uy, Initial residual = 0.00314138, Final residual = 0.000261542, No Iterations 2
smoothSolver:  Solving for Uz, Initial residual = 0.00240143, Final residual = 0.000192662, No Iterations 2
smoothSolver:  Solving for h, Initial residual = 0.0149013, Final residual = 0.00133486, No Iterations 2
GAMG:  Solving for p_rgh, Initial residual = 0.000414396, Final residual = 4.13819e-06, No Iterations 236
time step continuity errors : sum local = 4.80224e-07, global = 1.05573e-08, cumulative = 4.47378e-07
rho min/max : 1.14439 1.20452
ExecutionTime = 58.45 s  ClockTime = 60 s

    min/max/integ(walls) = 100, 100, 7.53638
Time = 50

smoothSolver:  Solving for Ux, Initial residual = 0.00304415, Final residual = 0.00025367, No Iterations 2
smoothSolver:  Solving for Uy, Initial residual = 0.00304376, Final residual = 0.000253606, No Iterations 2
smoothSolver:  Solving for Uz, Initial residual = 0.00232234, Final residual = 0.000186431, No Iterations 2
smoothSolver:  Solving for h, Initial residual = 0.014725, Final residual = 0.00131871, No Iterations 2
GAMG:  Solving for p_rgh, Initial residual = 0.000388155, Final residual = 3.86347e-06, No Iterations 256
time step continuity errors : sum local = 4.50655e-07, global = 8.23122e-09, cumulative = 4.55609e-07
rho min/max : 1.14378 1.20452
ExecutionTime = 59.77 s  ClockTime = 61 s

    min/max/integ(walls) = 100, 100, 7.53638
Time = 51

smoothSolver:  Solving for Ux, Initial residual = 0.00294797, Final residual = 0.000245766, No Iterations 2
smoothSolver:  Solving for Uy, Initial residual = 0.00294766, Final residual = 0.000245711, No Iterations 2
smoothSolver:  Solving for Uz, Initial residual = 0.00224755, Final residual = 0.000180516, No Iterations 2
smoothSolver:  Solving for h, Initial residual = 0.0145527, Final residual = 0.00130294, No Iterations 2
GAMG:  Solving for p_rgh, Initial residual = 0.000370347, Final residual = 3.70096e-06, No Iterations 286
time step continuity errors : sum local = 4.35415e-07, global = 2.53931e-09, cumulative = 4.58149e-07
rho min/max : 1.14318 1.20452
ExecutionTime = 61.17 s  ClockTime = 63 s

    min/max/integ(walls) = 100, 100, 7.53638
Time = 52

smoothSolver:  Solving for Ux, Initial residual = 0.00285247, Final residual = 0.000237875, No Iterations 2
smoothSolver:  Solving for Uy, Initial residual = 0.0028522, Final residual = 0.000237827, No Iterations 2
smoothSolver:  Solving for Uz, Initial residual = 0.00217657, Final residual = 0.000174884, No Iterations 2
smoothSolver:  Solving for h, Initial residual = 0.014386, Final residual = 0.00128769, No Iterations 2
GAMG:  Solving for p_rgh, Initial residual = 0.000351353, Final residual = 3.62888e-06, No Iterations 1000
time step continuity errors : sum local = 4.26166e-07, global = -2.00839e-09, cumulative = 4.5614e-07
rho min/max : 1.14258 1.20452
ExecutionTime = 65.88 s  ClockTime = 67 s

    min/max/integ(walls) = 100, 100, 7.53638
Time = 53

smoothSolver:  Solving for Ux, Initial residual = 0.00276233, Final residual = 0.000230427, No Iterations 2
smoothSolver:  Solving for Uy, Initial residual = 0.00276206, Final residual = 0.00023038, No Iterations 2
smoothSolver:  Solving for Uz, Initial residual = 0.00210843, Final residual = 0.000169476, No Iterations 2
smoothSolver:  Solving for h, Initial residual = 0.0142255, Final residual = 0.00127302, No Iterations 2
GAMG:  Solving for p_rgh, Initial residual = 0.000336261, Final residual = 3.63379e-06, No Iterations 1000
time step continuity errors : sum local = 4.24334e-07, global = 1.3622e-09, cumulative = 4.57503e-07
rho min/max : 1.14199 1.20452
ExecutionTime = 70.57 s  ClockTime = 72 s

    min/max/integ(walls) = 100, 100, 7.53638
Time = 54

smoothSolver:  Solving for Ux, Initial residual = 0.00267836, Final residual = 0.000223499, No Iterations 2
smoothSolver:  Solving for Uy, Initial residual = 0.00267807, Final residual = 0.000223455, No Iterations 2
smoothSolver:  Solving for Uz, Initial residual = 0.00204256, Final residual = 0.000164257, No Iterations 2
smoothSolver:  Solving for h, Initial residual = 0.014071, Final residual = 0.00125889, No Iterations 2
GAMG:  Solving for p_rgh, Initial residual = 0.000331503, Final residual = 3.65638e-06, No Iterations 1000
time step continuity errors : sum local = 4.25118e-07, global = -3.19341e-09, cumulative = 4.54309e-07
rho min/max : 1.1414 1.20452
ExecutionTime = 75.32 s  ClockTime = 77 s

    min/max/integ(walls) = 100, 100, 7.53638
Time = 55

smoothSolver:  Solving for Ux, Initial residual = 0.00260761, Final residual = 0.000217304, No Iterations 2
smoothSolver:  Solving for Uy, Initial residual = 0.0026072, Final residual = 0.00021725, No Iterations 2
smoothSolver:  Solving for Uz, Initial residual = 0.00197913, Final residual = 0.000159232, No Iterations 2
smoothSolver:  Solving for h, Initial residual = 0.0139222, Final residual = 0.0012453, No Iterations 2
GAMG:  Solving for p_rgh, Initial residual = 0.000331234, Final residual = 3.64703e-06, No Iterations 1000
time step continuity errors : sum local = 4.25698e-07, global = -1.03505e-09, cumulative = 4.53274e-07
rho min/max : 1.14082 1.20452
ExecutionTime = 80.11 s  ClockTime = 82 s

    min/max/integ(walls) = 100, 100, 7.53638
Time = 56

smoothSolver:  Solving for Ux, Initial residual = 0.00255058, Final residual = 0.000212009, No Iterations 2
smoothSolver:  Solving for Uy, Initial residual = 0.00255023, Final residual = 0.000211959, No Iterations 2
smoothSolver:  Solving for Uz, Initial residual = 0.0019185, Final residual = 0.000154419, No Iterations 2
smoothSolver:  Solving for h, Initial residual = 0.0137788, Final residual = 0.0012322, No Iterations 2
GAMG:  Solving for p_rgh, Initial residual = 0.000321523, Final residual = 3.66903e-06, No Iterations 1000
time step continuity errors : sum local = 4.24156e-07, global = -7.84069e-10, cumulative = 4.5249e-07
rho min/max : 1.14025 1.20452
ExecutionTime = 85.25 s  ClockTime = 87 s

    min/max/integ(walls) = 100, 100, 7.53638
Time = 57

smoothSolver:  Solving for Ux, Initial residual = 0.00250331, Final residual = 0.000207516, No Iterations 2
smoothSolver:  Solving for Uy, Initial residual = 0.00250311, Final residual = 0.000207478, No Iterations 2
smoothSolver:  Solving for Uz, Initial residual = 0.00186058, Final residual = 0.000149813, No Iterations 2
smoothSolver:  Solving for h, Initial residual = 0.0136406, Final residual = 0.00121957, No Iterations 2
GAMG:  Solving for p_rgh, Initial residual = 0.000312774, Final residual = 3.68646e-06, No Iterations 1000
time step continuity errors : sum local = 4.22708e-07, global = 5.19205e-10, cumulative = 4.53009e-07
rho min/max : 1.13968 1.20452
ExecutionTime = 89.89 s  ClockTime = 91 s

    min/max/integ(walls) = 100, 100, 7.53638
Time = 58

smoothSolver:  Solving for Ux, Initial residual = 0.00246101, Final residual = 0.000203482, No Iterations 2
smoothSolver:  Solving for Uy, Initial residual = 0.00246083, Final residual = 0.000203452, No Iterations 2
smoothSolver:  Solving for Uz, Initial residual = 0.00180504, Final residual = 0.000145392, No Iterations 2
smoothSolver:  Solving for h, Initial residual = 0.0135073, Final residual = 0.0012074, No Iterations 2
GAMG:  Solving for p_rgh, Initial residual = 0.000308106, Final residual = 3.67928e-06, No Iterations 1000
time step continuity errors : sum local = 4.21557e-07, global = -7.98411e-10, cumulative = 4.52211e-07
rho min/max : 1.13911 1.20452
ExecutionTime = 94.67 s  ClockTime = 96 s

    min/max/integ(walls) = 100, 100, 7.53638
Time = 59

smoothSolver:  Solving for Ux, Initial residual = 0.00242133, Final residual = 0.000199631, No Iterations 2
smoothSolver:  Solving for Uy, Initial residual = 0.00242105, Final residual = 0.000199589, No Iterations 2
smoothSolver:  Solving for Uz, Initial residual = 0.00175154, Final residual = 0.000141132, No Iterations 2
smoothSolver:  Solving for h, Initial residual = 0.0133786, Final residual = 0.00119565, No Iterations 2
GAMG:  Solving for p_rgh, Initial residual = 0.000304975, Final residual = 3.70726e-06, No Iterations 1000
time step continuity errors : sum local = 4.22909e-07, global = 3.95233e-10, cumulative = 4.52606e-07
rho min/max : 1.13855 1.20452
ExecutionTime = 99.45 s  ClockTime = 101 s

    min/max/integ(walls) = 100, 100, 7.53638
Time = 60

smoothSolver:  Solving for Ux, Initial residual = 0.00238146, Final residual = 0.000195856, No Iterations 2
smoothSolver:  Solving for Uy, Initial residual = 0.00238115, Final residual = 0.000195817, No Iterations 2
smoothSolver:  Solving for Uz, Initial residual = 0.00169978, Final residual = 0.000137015, No Iterations 2
smoothSolver:  Solving for h, Initial residual = 0.0132543, Final residual = 0.00118431, No Iterations 2
GAMG:  Solving for p_rgh, Initial residual = 0.000301986, Final residual = 3.70296e-06, No Iterations 1000
time step continuity errors : sum local = 4.25402e-07, global = 6.68772e-10, cumulative = 4.53275e-07
rho min/max : 1.13799 1.20452
ExecutionTime = 104.26 s  ClockTime = 106 s

    min/max/integ(walls) = 100, 100, 7.53638
Time = 61

smoothSolver:  Solving for Ux, Initial residual = 0.0023404, Final residual = 0.000192122, No Iterations 2
smoothSolver:  Solving for Uy, Initial residual = 0.00234009, Final residual = 0.000192084, No Iterations 2
smoothSolver:  Solving for Uz, Initial residual = 0.00164981, Final residual = 0.000133041, No Iterations 2
smoothSolver:  Solving for h, Initial residual = 0.0131342, Final residual = 0.00117335, No Iterations 2
GAMG:  Solving for p_rgh, Initial residual = 0.000299256, Final residual = 3.74046e-06, No Iterations 1000
time step continuity errors : sum local = 4.25645e-07, global = -2.74123e-09, cumulative = 4.50534e-07
rho min/max : 1.13744 1.20452
ExecutionTime = 109.02 s  ClockTime = 111 s

    min/max/integ(walls) = 100, 100, 7.53638
Time = 62

smoothSolver:  Solving for Ux, Initial residual = 0.00229543, Final residual = 0.000188295, No Iterations 2
smoothSolver:  Solving for Uy, Initial residual = 0.00229512, Final residual = 0.000188257, No Iterations 2
smoothSolver:  Solving for Uz, Initial residual = 0.00160168, Final residual = 0.000129211, No Iterations 2
smoothSolver:  Solving for h, Initial residual = 0.013018, Final residual = 0.00116275, No Iterations 2
GAMG:  Solving for p_rgh, Initial residual = 0.000296965, Final residual = 3.72171e-06, No Iterations 1000
time step continuity errors : sum local = 4.22085e-07, global = 9.74679e-10, cumulative = 4.51508e-07
rho min/max : 1.13689 1.20452
ExecutionTime = 113.82 s  ClockTime = 115 s

    min/max/integ(walls) = 100, 100, 7.53638
Time = 63

smoothSolver:  Solving for Ux, Initial residual = 0.00224795, Final residual = 0.000184268, No Iterations 2
smoothSolver:  Solving for Uy, Initial residual = 0.00224772, Final residual = 0.000184237, No Iterations 2
smoothSolver:  Solving for Uz, Initial residual = 0.00155532, Final residual = 0.000125521, No Iterations 2
smoothSolver:  Solving for h, Initial residual = 0.0129056, Final residual = 0.0011525, No Iterations 2
GAMG:  Solving for p_rgh, Initial residual = 0.000291565, Final residual = 3.71737e-06, No Iterations 1000
time step continuity errors : sum local = 4.23198e-07, global = -1.03733e-09, cumulative = 4.50471e-07
rho min/max : 1.13634 1.20452
ExecutionTime = 118.73 s  ClockTime = 120 s

    min/max/integ(walls) = 100, 100, 7.53638
Time = 64

smoothSolver:  Solving for Ux, Initial residual = 0.0022007, Final residual = 0.000180115, No Iterations 2
smoothSolver:  Solving for Uy, Initial residual = 0.00220048, Final residual = 0.000180085, No Iterations 2
smoothSolver:  Solving for Uz, Initial residual = 0.00151065, Final residual = 0.000121964, No Iterations 2
smoothSolver:  Solving for h, Initial residual = 0.0127969, Final residual = 0.00114258, No Iterations 2
GAMG:  Solving for p_rgh, Initial residual = 0.000285315, Final residual = 3.75395e-06, No Iterations 1000
time step continuity errors : sum local = 4.22592e-07, global = -2.47094e-09, cumulative = 4.48e-07
rho min/max : 1.1358 1.20452
ExecutionTime = 123.81 s  ClockTime = 125 s

    min/max/integ(walls) = 100, 100, 7.53638
Time = 65

smoothSolver:  Solving for Ux, Initial residual = 0.00215067, Final residual = 0.000175932, No Iterations 2
smoothSolver:  Solving for Uy, Initial residual = 0.00215043, Final residual = 0.000175899, No Iterations 2
smoothSolver:  Solving for Uz, Initial residual = 0.00146752, Final residual = 0.000118531, No Iterations 2
smoothSolver:  Solving for h, Initial residual = 0.0126915, Final residual = 0.00113298, No Iterations 2
GAMG:  Solving for p_rgh, Initial residual = 0.000282137, Final residual = 3.73175e-06, No Iterations 1000
time step continuity errors : sum local = 4.20675e-07, global = -1.21083e-10, cumulative = 4.47879e-07
rho min/max : 1.13526 1.20452
ExecutionTime = 128.73 s  ClockTime = 130 s

    min/max/integ(walls) = 100, 100, 7.53638
Time = 66

smoothSolver:  Solving for Ux, Initial residual = 0.00209751, Final residual = 0.000171725, No Iterations 2
smoothSolver:  Solving for Uy, Initial residual = 0.00209726, Final residual = 0.000171695, No Iterations 2
smoothSolver:  Solving for Uz, Initial residual = 0.00142584, Final residual = 0.000115214, No Iterations 2
smoothSolver:  Solving for h, Initial residual = 0.0125894, Final residual = 0.00112368, No Iterations 2
GAMG:  Solving for p_rgh, Initial residual = 0.000278545, Final residual = 3.77227e-06, No Iterations 1000
time step continuity errors : sum local = 4.22567e-07, global = 2.72978e-10, cumulative = 4.48152e-07
rho min/max : 1.13473 1.20452
ExecutionTime = 133.75 s  ClockTime = 135 s

    min/max/integ(walls) = 100, 100, 7.53638
Time = 67

smoothSolver:  Solving for Ux, Initial residual = 0.00204458, Final residual = 0.000167479, No Iterations 2
smoothSolver:  Solving for Uy, Initial residual = 0.00204434, Final residual = 0.000167448, No Iterations 2
smoothSolver:  Solving for Uz, Initial residual = 0.00138558, Final residual = 0.00011201, No Iterations 2
smoothSolver:  Solving for h, Initial residual = 0.0124904, Final residual = 0.00111465, No Iterations 2
GAMG:  Solving for p_rgh, Initial residual = 0.00027153, Final residual = 3.78142e-06, No Iterations 1000
time step continuity errors : sum local = 4.23157e-07, global = 3.67151e-10, cumulative = 4.48519e-07
rho min/max : 1.1342 1.20452
ExecutionTime = 138.64 s  ClockTime = 140 s

    min/max/integ(walls) = 100, 100, 7.53638
Time = 68

smoothSolver:  Solving for Ux, Initial residual = 0.00199464, Final residual = 0.000163225, No Iterations 2
smoothSolver:  Solving for Uy, Initial residual = 0.00199437, Final residual = 0.000163193, No Iterations 2
smoothSolver:  Solving for Uz, Initial residual = 0.00134673, Final residual = 0.000108914, No Iterations 2
smoothSolver:  Solving for h, Initial residual = 0.0123943, Final residual = 0.0011059, No Iterations 2
GAMG:  Solving for p_rgh, Initial residual = 0.000263442, Final residual = 3.77723e-06, No Iterations 1000
time step continuity errors : sum local = 4.2086e-07, global = 1.11103e-09, cumulative = 4.4963e-07
rho min/max : 1.13367 1.20452
ExecutionTime = 143.75 s  ClockTime = 145 s

    min/max/integ(walls) = 100, 100, 7.53638
Time = 69

smoothSolver:  Solving for Ux, Initial residual = 0.00194477, Final residual = 0.000158986, No Iterations 2
smoothSolver:  Solving for Uy, Initial residual = 0.00194454, Final residual = 0.000158957, No Iterations 2
smoothSolver:  Solving for Uz, Initial residual = 0.00130922, Final residual = 0.000105924, No Iterations 2
smoothSolver:  Solving for h, Initial residual = 0.0123011, Final residual = 0.00109741, No Iterations 2
GAMG:  Solving for p_rgh, Initial residual = 0.000251493, Final residual = 3.78197e-06, No Iterations 1000
time step continuity errors : sum local = 4.22209e-07, global = -2.44516e-09, cumulative = 4.47185e-07
rho min/max : 1.13314 1.20452
ExecutionTime = 148.84 s  ClockTime = 150 s

    min/max/integ(walls) = 100, 100, 7.53638
Time = 70

smoothSolver:  Solving for Ux, Initial residual = 0.00189469, Final residual = 0.000154809, No Iterations 2
smoothSolver:  Solving for Uy, Initial residual = 0.00189454, Final residual = 0.000154787, No Iterations 2
smoothSolver:  Solving for Uz, Initial residual = 0.00127295, Final residual = 0.000103032, No Iterations 2
smoothSolver:  Solving for h, Initial residual = 0.0122106, Final residual = 0.00108916, No Iterations 2
GAMG:  Solving for p_rgh, Initial residual = 0.000245858, Final residual = 3.81905e-06, No Iterations 1000
time step continuity errors : sum local = 4.22553e-07, global = 1.40841e-09, cumulative = 4.48593e-07
rho min/max : 1.13262 1.20452
ExecutionTime = 153.78 s  ClockTime = 155 s

    min/max/integ(walls) = 100, 100, 7.53638
Time = 71

smoothSolver:  Solving for Ux, Initial residual = 0.0018443, Final residual = 0.000150647, No Iterations 2
smoothSolver:  Solving for Uy, Initial residual = 0.00184412, Final residual = 0.000150621, No Iterations 2
smoothSolver:  Solving for Uz, Initial residual = 0.00123786, Final residual = 0.000100234, No Iterations 2
smoothSolver:  Solving for h, Initial residual = 0.0121227, Final residual = 0.00108116, No Iterations 2
GAMG:  Solving for p_rgh, Initial residual = 0.000235377, Final residual = 3.82273e-06, No Iterations 1000
time step continuity errors : sum local = 4.21915e-07, global = 3.14902e-09, cumulative = 4.51742e-07
rho min/max : 1.13211 1.20452
ExecutionTime = 158.87 s  ClockTime = 160 s

    min/max/integ(walls) = 100, 100, 7.53638
Time = 72

smoothSolver:  Solving for Ux, Initial residual = 0.00179428, Final residual = 0.000146573, No Iterations 2
smoothSolver:  Solving for Uy, Initial residual = 0.00179401, Final residual = 0.00014654, No Iterations 2
smoothSolver:  Solving for Uz, Initial residual = 0.00120393, Final residual = 9.75274e-05, No Iterations 2
smoothSolver:  Solving for h, Initial residual = 0.0120373, Final residual = 0.00107338, No Iterations 2
GAMG:  Solving for p_rgh, Initial residual = 0.000227285, Final residual = 3.80748e-06, No Iterations 1000
time step continuity errors : sum local = 4.21003e-07, global = 2.06565e-10, cumulative = 4.51949e-07
rho min/max : 1.13159 1.20452
ExecutionTime = 163.85 s  ClockTime = 165 s

    min/max/integ(walls) = 100, 100, 7.53638
Time = 73

smoothSolver:  Solving for Ux, Initial residual = 0.00174469, Final residual = 0.000142565, No Iterations 2
smoothSolver:  Solving for Uy, Initial residual = 0.00174443, Final residual = 0.000142532, No Iterations 2
smoothSolver:  Solving for Uz, Initial residual = 0.0011711, Final residual = 9.49078e-05, No Iterations 2
smoothSolver:  Solving for h, Initial residual = 0.0119542, Final residual = 0.00106582, No Iterations 2
GAMG:  Solving for p_rgh, Initial residual = 0.000222613, Final residual = 3.82606e-06, No Iterations 1000
time step continuity errors : sum local = 4.21412e-07, global = 6.23826e-10, cumulative = 4.52573e-07
rho min/max : 1.13108 1.20452
ExecutionTime = 168.82 s  ClockTime = 170 s

    min/max/integ(walls) = 100, 100, 7.53638
Time = 74

smoothSolver:  Solving for Ux, Initial residual = 0.00169511, Final residual = 0.000138642, No Iterations 2
smoothSolver:  Solving for Uy, Initial residual = 0.00169489, Final residual = 0.00013861, No Iterations 2
smoothSolver:  Solving for Uz, Initial residual = 0.00113935, Final residual = 9.23733e-05, No Iterations 2
smoothSolver:  Solving for h, Initial residual = 0.0118735, Final residual = 0.00105847, No Iterations 2
GAMG:  Solving for p_rgh, Initial residual = 0.000215248, Final residual = 3.82304e-06, No Iterations 1000
time step continuity errors : sum local = 4.20628e-07, global = 1.81275e-09, cumulative = 4.54385e-07
rho min/max : 1.13058 1.20452
ExecutionTime = 173.83 s  ClockTime = 175 s

    min/max/integ(walls) = 100, 100, 7.53638
Time = 75

smoothSolver:  Solving for Ux, Initial residual = 0.00164636, Final residual = 0.000135055, No Iterations 2
smoothSolver:  Solving for Uy, Initial residual = 0.00164619, Final residual = 0.000135028, No Iterations 2
smoothSolver:  Solving for Uz, Initial residual = 0.00110862, Final residual = 8.99202e-05, No Iterations 2
smoothSolver:  Solving for h, Initial residual = 0.011795, Final residual = 0.00105133, No Iterations 2
GAMG:  Solving for p_rgh, Initial residual = 0.000205783, Final residual = 3.82701e-06, No Iterations 1000
time step continuity errors : sum local = 4.21311e-07, global = -1.07795e-09, cumulative = 4.53308e-07
rho min/max : 1.13007 1.20452
ExecutionTime = 178.88 s  ClockTime = 181 s

    min/max/integ(walls) = 100, 100, 7.53638
Time = 76

smoothSolver:  Solving for Ux, Initial residual = 0.00159859, Final residual = 0.000131727, No Iterations 2
smoothSolver:  Solving for Uy, Initial residual = 0.00159843, Final residual = 0.0001317, No Iterations 2
smoothSolver:  Solving for Uz, Initial residual = 0.00107887, Final residual = 8.75464e-05, No Iterations 2
smoothSolver:  Solving for h, Initial residual = 0.0117186, Final residual = 0.00104438, No Iterations 2
GAMG:  Solving for p_rgh, Initial residual = 0.000196784, Final residual = 3.82427e-06, No Iterations 1000
time step continuity errors : sum local = 4.21868e-07, global = -8.8494e-10, cumulative = 4.52423e-07
rho min/max : 1.12957 1.20452
ExecutionTime = 183.84 s  ClockTime = 185 s

    min/max/integ(walls) = 100, 100, 7.53638
Time = 77

smoothSolver:  Solving for Ux, Initial residual = 0.00155256, Final residual = 0.000128463, No Iterations 2
smoothSolver:  Solving for Uy, Initial residual = 0.00155237, Final residual = 0.000128433, No Iterations 2
smoothSolver:  Solving for Uz, Initial residual = 0.00105007, Final residual = 8.52483e-05, No Iterations 2
smoothSolver:  Solving for h, Initial residual = 0.0116442, Final residual = 0.00103762, No Iterations 2
GAMG:  Solving for p_rgh, Initial residual = 0.000191847, Final residual = 3.84156e-06, No Iterations 1000
time step continuity errors : sum local = 4.22121e-07, global = -1.017e-09, cumulative = 4.51406e-07
rho min/max : 1.12907 1.20452
ExecutionTime = 188.71 s  ClockTime = 190 s

    min/max/integ(walls) = 100, 100, 7.53638
Time = 78

smoothSolver:  Solving for Ux, Initial residual = 0.00151047, Final residual = 0.000125261, No Iterations 2
smoothSolver:  Solving for Uy, Initial residual = 0.00151024, Final residual = 0.000125223, No Iterations 2
smoothSolver:  Solving for Uz, Initial residual = 0.00102218, Final residual = 8.30249e-05, No Iterations 2
smoothSolver:  Solving for h, Initial residual = 0.0115718, Final residual = 0.00103103, No Iterations 2
GAMG:  Solving for p_rgh, Initial residual = 0.000187537, Final residual = 3.85443e-06, No Iterations 1000
time step continuity errors : sum local = 4.20904e-07, global = 1.86141e-09, cumulative = 4.53267e-07
rho min/max : 1.12857 1.20452
ExecutionTime = 193.55 s  ClockTime = 195 s

    min/max/integ(walls) = 100, 100, 7.53638
Time = 79

smoothSolver:  Solving for Ux, Initial residual = 0.00147281, Final residual = 0.000122173, No Iterations 2
smoothSolver:  Solving for Uy, Initial residual = 0.00147259, Final residual = 0.000122138, No Iterations 2
smoothSolver:  Solving for Uz, Initial residual = 0.000995201, Final residual = 8.08753e-05, No Iterations 2
smoothSolver:  Solving for h, Initial residual = 0.0115013, Final residual = 0.00102462, No Iterations 2
GAMG:  Solving for p_rgh, Initial residual = 0.00018179, Final residual = 3.83705e-06, No Iterations 1000
time step continuity errors : sum local = 4.21977e-07, global = 8.41003e-10, cumulative = 4.54108e-07
rho min/max : 1.12808 1.20452
ExecutionTime = 198.42 s  ClockTime = 200 s

    min/max/integ(walls) = 100, 100, 7.53638
Time = 80

smoothSolver:  Solving for Ux, Initial residual = 0.00143709, Final residual = 0.000119218, No Iterations 2
smoothSolver:  Solving for Uy, Initial residual = 0.00143693, Final residual = 0.00011919, No Iterations 2
smoothSolver:  Solving for Uz, Initial residual = 0.000969097, Final residual = 7.87985e-05, No Iterations 2
smoothSolver:  Solving for h, Initial residual = 0.0114326, Final residual = 0.00101837, No Iterations 2
GAMG:  Solving for p_rgh, Initial residual = 0.000176431, Final residual = 3.86291e-06, No Iterations 1000
time step continuity errors : sum local = 4.1999e-07, global = 1.55352e-09, cumulative = 4.55662e-07
rho min/max : 1.12759 1.20452
ExecutionTime = 203.53 s  ClockTime = 205 s

    min/max/integ(walls) = 100, 100, 7.53638
Time = 81

smoothSolver:  Solving for Ux, Initial residual = 0.00140244, Final residual = 0.000116304, No Iterations 2
smoothSolver:  Solving for Uy, Initial residual = 0.0014023, Final residual = 0.000116279, No Iterations 2
smoothSolver:  Solving for Uz, Initial residual = 0.000943809, Final residual = 7.68036e-05, No Iterations 2
smoothSolver:  Solving for h, Initial residual = 0.0113657, Final residual = 0.00101229, No Iterations 2
GAMG:  Solving for p_rgh, Initial residual = 0.000172095, Final residual = 3.84714e-06, No Iterations 1000
time step continuity errors : sum local = 4.20391e-07, global = 1.25748e-09, cumulative = 4.56919e-07
rho min/max : 1.1271 1.20452
ExecutionTime = 208.46 s  ClockTime = 210 s

    min/max/integ(walls) = 100, 100, 7.53638
Time = 82

smoothSolver:  Solving for Ux, Initial residual = 0.00136833, Final residual = 0.000113374, No Iterations 2
smoothSolver:  Solving for Uy, Initial residual = 0.00136819, Final residual = 0.000113347, No Iterations 2
smoothSolver:  Solving for Uz, Initial residual = 0.000919319, Final residual = 7.48901e-05, No Iterations 2
smoothSolver:  Solving for h, Initial residual = 0.0113004, Final residual = 0.00100635, No Iterations 2
GAMG:  Solving for p_rgh, Initial residual = 0.000167912, Final residual = 3.87109e-06, No Iterations 1000
time step continuity errors : sum local = 4.20091e-07, global = 8.09431e-10, cumulative = 4.57728e-07
rho min/max : 1.12662 1.20452
ExecutionTime = 213.47 s  ClockTime = 215 s

    min/max/integ(walls) = 100, 100, 7.53638
Time = 83

smoothSolver:  Solving for Ux, Initial residual = 0.00133445, Final residual = 0.000110452, No Iterations 2
smoothSolver:  Solving for Uy, Initial residual = 0.00133424, Final residual = 0.000110422, No Iterations 2
smoothSolver:  Solving for Uz, Initial residual = 0.000895598, Final residual = 7.30492e-05, No Iterations 2
smoothSolver:  Solving for h, Initial residual = 0.0112366, Final residual = 0.00100056, No Iterations 2
GAMG:  Solving for p_rgh, Initial residual = 0.000162202, Final residual = 3.87613e-06, No Iterations 1000
time step continuity errors : sum local = 4.19451e-07, global = -1.7847e-09, cumulative = 4.55944e-07
rho min/max : 1.12614 1.20452
ExecutionTime = 218.59 s  ClockTime = 220 s

    min/max/integ(walls) = 100, 100, 7.53638
Time = 84

smoothSolver:  Solving for Ux, Initial residual = 0.00130074, Final residual = 0.000107584, No Iterations 2
smoothSolver:  Solving for Uy, Initial residual = 0.00130054, Final residual = 0.000107554, No Iterations 2
smoothSolver:  Solving for Uz, Initial residual = 0.000872649, Final residual = 7.12656e-05, No Iterations 2
smoothSolver:  Solving for h, Initial residual = 0.0111744, Final residual = 0.000994902, No Iterations 2
GAMG:  Solving for p_rgh, Initial residual = 0.000157178, Final residual = 3.89248e-06, No Iterations 1000
time step continuity errors : sum local = 4.20681e-07, global = 1.44354e-09, cumulative = 4.57387e-07
rho min/max : 1.12566 1.20452
ExecutionTime = 223.7 s  ClockTime = 225 s

    min/max/integ(walls) = 100, 100, 7.53638
Time = 85

smoothSolver:  Solving for Ux, Initial residual = 0.00126746, Final residual = 0.000104734, No Iterations 2
smoothSolver:  Solving for Uy, Initial residual = 0.00126734, Final residual = 0.000104709, No Iterations 2
smoothSolver:  Solving for Uz, Initial residual = 0.000850478, Final residual = 6.9537e-05, No Iterations 2
smoothSolver:  Solving for h, Initial residual = 0.0111136, Final residual = 0.000989379, No Iterations 2
GAMG:  Solving for p_rgh, Initial residual = 0.000153261, Final residual = 3.88524e-06, No Iterations 1000
time step continuity errors : sum local = 4.1982e-07, global = 1.418e-09, cumulative = 4.58805e-07
rho min/max : 1.12518 1.20452
ExecutionTime = 228.98 s  ClockTime = 231 s

    min/max/integ(walls) = 100, 100, 7.53638
Time = 86

smoothSolver:  Solving for Ux, Initial residual = 0.00123484, Final residual = 0.000101975, No Iterations 2
smoothSolver:  Solving for Uy, Initial residual = 0.0012347, Final residual = 0.00010195, No Iterations 2
smoothSolver:  Solving for Uz, Initial residual = 0.000829251, Final residual = 6.78613e-05, No Iterations 2
smoothSolver:  Solving for h, Initial residual = 0.0110542, Final residual = 0.000983985, No Iterations 2
GAMG:  Solving for p_rgh, Initial residual = 0.000150244, Final residual = 3.90935e-06, No Iterations 1000
time step continuity errors : sum local = 4.20409e-07, global = -5.22577e-10, cumulative = 4.58283e-07
rho min/max : 1.1247 1.20452
ExecutionTime = 234.17 s  ClockTime = 236 s

    min/max/integ(walls) = 100, 100, 7.53638
Time = 87

smoothSolver:  Solving for Ux, Initial residual = 0.00120146, Final residual = 9.92736e-05, No Iterations 2
smoothSolver:  Solving for Uy, Initial residual = 0.00120135, Final residual = 9.92497e-05, No Iterations 2
smoothSolver:  Solving for Uz, Initial residual = 0.000809001, Final residual = 6.62371e-05, No Iterations 2
smoothSolver:  Solving for h, Initial residual = 0.0109962, Final residual = 0.000978716, No Iterations 2
GAMG:  Solving for p_rgh, Initial residual = 0.000147106, Final residual = 3.91385e-06, No Iterations 1000
time step continuity errors : sum local = 4.2036e-07, global = -1.96128e-09, cumulative = 4.56321e-07
rho min/max : 1.12423 1.20452
ExecutionTime = 239.63 s  ClockTime = 241 s

    min/max/integ(walls) = 100, 100, 7.53638
Time = 88

smoothSolver:  Solving for Ux, Initial residual = 0.00116751, Final residual = 9.66073e-05, No Iterations 2
smoothSolver:  Solving for Uy, Initial residual = 0.00116739, Final residual = 9.6584e-05, No Iterations 2
smoothSolver:  Solving for Uz, Initial residual = 0.000789415, Final residual = 6.46632e-05, No Iterations 2
smoothSolver:  Solving for h, Initial residual = 0.0109395, Final residual = 0.000973565, No Iterations 2
GAMG:  Solving for p_rgh, Initial residual = 0.000142912, Final residual = 3.89225e-06, No Iterations 1000
time step continuity errors : sum local = 4.19234e-07, global = 6.71393e-10, cumulative = 4.56993e-07
rho min/max : 1.12376 1.20452
ExecutionTime = 244.89 s  ClockTime = 247 s

    min/max/integ(walls) = 100, 100, 7.53638
Time = 89

smoothSolver:  Solving for Ux, Initial residual = 0.00113421, Final residual = 9.39263e-05, No Iterations 2
smoothSolver:  Solving for Uy, Initial residual = 0.00113403, Final residual = 9.38986e-05, No Iterations 2
smoothSolver:  Solving for Uz, Initial residual = 0.000770445, Final residual = 6.31377e-05, No Iterations 2
smoothSolver:  Solving for h, Initial residual = 0.010884, Final residual = 0.000968523, No Iterations 2
GAMG:  Solving for p_rgh, Initial residual = 0.000138986, Final residual = 3.94658e-06, No Iterations 1000
time step continuity errors : sum local = 4.20363e-07, global = -4.5206e-09, cumulative = 4.52472e-07
rho min/max : 1.12329 1.20452
ExecutionTime = 250.07 s  ClockTime = 252 s

    min/max/integ(walls) = 100, 100, 7.53638
Time = 90

smoothSolver:  Solving for Ux, Initial residual = 0.00110236, Final residual = 9.12677e-05, No Iterations 2
smoothSolver:  Solving for Uy, Initial residual = 0.00110218, Final residual = 9.12388e-05, No Iterations 2
smoothSolver:  Solving for Uz, Initial residual = 0.000752076, Final residual = 6.16588e-05, No Iterations 2
smoothSolver:  Solving for h, Initial residual = 0.0108296, Final residual = 0.000963589, No Iterations 2
GAMG:  Solving for p_rgh, Initial residual = 0.000135739, Final residual = 3.9087e-06, No Iterations 1000
time step continuity errors : sum local = 4.19295e-07, global = 1.52916e-09, cumulative = 4.54001e-07
rho min/max : 1.12282 1.20452
ExecutionTime = 255.28 s  ClockTime = 257 s

    min/max/integ(walls) = 100, 100, 7.53638
Time = 91

smoothSolver:  Solving for Ux, Initial residual = 0.00107162, Final residual = 8.86725e-05, No Iterations 2
smoothSolver:  Solving for Uy, Initial residual = 0.00107147, Final residual = 8.8646e-05, No Iterations 2
smoothSolver:  Solving for Uz, Initial residual = 0.000734268, Final residual = 6.0228e-05, No Iterations 2
smoothSolver:  Solving for h, Initial residual = 0.0107765, Final residual = 0.000958763, No Iterations 2
GAMG:  Solving for p_rgh, Initial residual = 0.0001326, Final residual = 3.91232e-06, No Iterations 1000
time step continuity errors : sum local = 4.21494e-07, global = -2.1379e-09, cumulative = 4.51863e-07
rho min/max : 1.12236 1.20452
ExecutionTime = 260.73 s  ClockTime = 263 s

    min/max/integ(walls) = 100, 100, 7.53638
Time = 92

smoothSolver:  Solving for Ux, Initial residual = 0.00104194, Final residual = 8.61711e-05, No Iterations 2
smoothSolver:  Solving for Uy, Initial residual = 0.00104181, Final residual = 8.6148e-05, No Iterations 2
smoothSolver:  Solving for Uz, Initial residual = 0.000716998, Final residual = 5.88401e-05, No Iterations 2
smoothSolver:  Solving for h, Initial residual = 0.0107245, Final residual = 0.000954042, No Iterations 2
GAMG:  Solving for p_rgh, Initial residual = 0.000130175, Final residual = 3.93214e-06, No Iterations 1000
time step continuity errors : sum local = 4.20316e-07, global = -2.75811e-10, cumulative = 4.51588e-07
rho min/max : 1.1219 1.20452
ExecutionTime = 265.81 s  ClockTime = 268 s

    min/max/integ(walls) = 100, 100, 7.53638
Time = 93

smoothSolver:  Solving for Ux, Initial residual = 0.00101303, Final residual = 8.37466e-05, No Iterations 2
smoothSolver:  Solving for Uy, Initial residual = 0.00101293, Final residual = 8.37269e-05, No Iterations 2
smoothSolver:  Solving for Uz, Initial residual = 0.000700249, Final residual = 5.74954e-05, No Iterations 2
smoothSolver:  Solving for h, Initial residual = 0.0106736, Final residual = 0.000949425, No Iterations 2
GAMG:  Solving for p_rgh, Initial residual = 0.000127751, Final residual = 3.94882e-06, No Iterations 1000
time step continuity errors : sum local = 4.1962e-07, global = -2.03739e-09, cumulative = 4.4955e-07
rho min/max : 1.12144 1.20452
ExecutionTime = 271.16 s  ClockTime = 273 s

    min/max/integ(walls) = 100, 100, 7.53638
Time = 94

smoothSolver:  Solving for Ux, Initial residual = 0.000984951, Final residual = 8.14454e-05, No Iterations 2
smoothSolver:  Solving for Uy, Initial residual = 0.000984815, Final residual = 8.14223e-05, No Iterations 2
smoothSolver:  Solving for Uz, Initial residual = 0.00068399, Final residual = 5.61902e-05, No Iterations 2
smoothSolver:  Solving for h, Initial residual = 0.0106238, Final residual = 0.000944907, No Iterations 2
GAMG:  Solving for p_rgh, Initial residual = 0.000123791, Final residual = 3.92439e-06, No Iterations 1000
time step continuity errors : sum local = 4.19542e-07, global = -1.85397e-09, cumulative = 4.47696e-07
rho min/max : 1.12098 1.20452
ExecutionTime = 276.34 s  ClockTime = 278 s

    min/max/integ(walls) = 100, 100, 7.53638
Time = 95

smoothSolver:  Solving for Ux, Initial residual = 0.000958551, Final residual = 7.92793e-05, No Iterations 2
smoothSolver:  Solving for Uy, Initial residual = 0.000958424, Final residual = 7.92572e-05, No Iterations 2
smoothSolver:  Solving for Uz, Initial residual = 0.000668203, Final residual = 5.49239e-05, No Iterations 2
smoothSolver:  Solving for h, Initial residual = 0.0105751, Final residual = 0.000940487, No Iterations 2
GAMG:  Solving for p_rgh, Initial residual = 0.000119036, Final residual = 3.96603e-06, No Iterations 1000
time step continuity errors : sum local = 4.19552e-07, global = 6.26461e-10, cumulative = 4.48323e-07
rho min/max : 1.12053 1.20452
ExecutionTime = 281.72 s  ClockTime = 284 s

    min/max/integ(walls) = 100, 100, 7.53638
Time = 96

smoothSolver:  Solving for Ux, Initial residual = 0.000933956, Final residual = 7.72308e-05, No Iterations 2
smoothSolver:  Solving for Uy, Initial residual = 0.000933821, Final residual = 7.7207e-05, No Iterations 2
smoothSolver:  Solving for Uz, Initial residual = 0.000652879, Final residual = 5.3695e-05, No Iterations 2
smoothSolver:  Solving for h, Initial residual = 0.0105274, Final residual = 0.00093616, No Iterations 2
GAMG:  Solving for p_rgh, Initial residual = 0.000115003, Final residual = 3.91094e-06, No Iterations 1000
time step continuity errors : sum local = 4.19001e-07, global = 2.3157e-10, cumulative = 4.48554e-07
rho min/max : 1.12007 1.20452
ExecutionTime = 286.93 s  ClockTime = 289 s

    min/max/integ(walls) = 100, 100, 7.53638
Time = 97

smoothSolver:  Solving for Ux, Initial residual = 0.000910515, Final residual = 7.52922e-05, No Iterations 2
smoothSolver:  Solving for Uy, Initial residual = 0.0009104, Final residual = 7.52699e-05, No Iterations 2
smoothSolver:  Solving for Uz, Initial residual = 0.000637999, Final residual = 5.25026e-05, No Iterations 2
smoothSolver:  Solving for h, Initial residual = 0.0104804, Final residual = 0.000931903, No Iterations 2
GAMG:  Solving for p_rgh, Initial residual = 0.000111975, Final residual = 3.95166e-06, No Iterations 1000
time step continuity errors : sum local = 4.18883e-07, global = -8.03111e-10, cumulative = 4.47751e-07
rho min/max : 1.11962 1.20452
ExecutionTime = 292.13 s  ClockTime = 294 s

    min/max/integ(walls) = 100, 100, 7.53638
Time = 98

smoothSolver:  Solving for Ux, Initial residual = 0.000887638, Final residual = 7.34601e-05, No Iterations 2
smoothSolver:  Solving for Uy, Initial residual = 0.00088753, Final residual = 7.34383e-05, No Iterations 2
smoothSolver:  Solving for Uz, Initial residual = 0.000623555, Final residual = 5.13456e-05, No Iterations 2
smoothSolver:  Solving for h, Initial residual = 0.0104337, Final residual = 0.000927663, No Iterations 2
GAMG:  Solving for p_rgh, Initial residual = 0.000110217, Final residual = 3.97707e-06, No Iterations 1000
time step continuity errors : sum local = 4.21435e-07, global = -2.59436e-09, cumulative = 4.45157e-07
rho min/max : 1.11917 1.20452
ExecutionTime = 297.4 s  ClockTime = 299 s

    min/max/integ(walls) = 100, 100, 7.53638
Time = 99

smoothSolver:  Solving for Ux, Initial residual = 0.000864708, Final residual = 7.16824e-05, No Iterations 2
smoothSolver:  Solving for Uy, Initial residual = 0.000864627, Final residual = 7.16618e-05, No Iterations 2
smoothSolver:  Solving for Uz, Initial residual = 0.000609564, Final residual = 5.02233e-05, No Iterations 2
smoothSolver:  Solving for h, Initial residual = 0.0103877, Final residual = 0.000923495, No Iterations 2
GAMG:  Solving for p_rgh, Initial residual = 0.00010799, Final residual = 3.94684e-06, No Iterations 1000
time step continuity errors : sum local = 4.18387e-07, global = 3.07263e-10, cumulative = 4.45464e-07
rho min/max : 1.11872 1.20452
ExecutionTime = 302.72 s  ClockTime = 305 s

    min/max/integ(walls) = 100, 100, 7.53638
Time = 100

smoothSolver:  Solving for Ux, Initial residual = 0.000842107, Final residual = 6.99348e-05, No Iterations 2
smoothSolver:  Solving for Uy, Initial residual = 0.000842009, Final residual = 6.99138e-05, No Iterations 2
smoothSolver:  Solving for Uz, Initial residual = 0.000595993, Final residual = 4.91384e-05, No Iterations 2
smoothSolver:  Solving for h, Initial residual = 0.0103424, Final residual = 0.000919397, No Iterations 2
GAMG:  Solving for p_rgh, Initial residual = 0.00010514, Final residual = 3.94447e-06, No Iterations 1000
time step continuity errors : sum local = 4.2003e-07, global = -1.13098e-09, cumulative = 4.44333e-07
rho min/max : 1.11828 1.20452
ExecutionTime = 308.07 s  ClockTime = 310 s

    min/max/integ(walls) = 100, 100, 7.53638
Time = 101

smoothSolver:  Solving for Ux, Initial residual = 0.000820797, Final residual = 6.82258e-05, No Iterations 2
smoothSolver:  Solving for Uy, Initial residual = 0.000820652, Final residual = 6.82015e-05, No Iterations 2
smoothSolver:  Solving for Uz, Initial residual = 0.000582812, Final residual = 4.80936e-05, No Iterations 2
smoothSolver:  Solving for h, Initial residual = 0.0102981, Final residual = 0.00091538, No Iterations 2
GAMG:  Solving for p_rgh, Initial residual = 0.000103035, Final residual = 3.94312e-06, No Iterations 1000
[...]
rho min/max : 0.966059 1.20452
ExecutionTime = 2842.24 s  ClockTime = 2850 s

    min/max/integ(walls) = 100, 100, 7.53638
Time = 576

smoothSolver:  Solving for Ux, Initial residual = 1.26291e-05, Final residual = 1.03272e-06, No Iterations 2
smoothSolver:  Solving for Uy, Initial residual = 1.26418e-05, Final residual = 1.03381e-06, No Iterations 2
smoothSolver:  Solving for Uz, Initial residual = 0.000193979, Final residual = 1.64004e-05, No Iterations 2
smoothSolver:  Solving for h, Initial residual = 0.00319495, Final residual = 0.000282498, No Iterations 2
GAMG:  Solving for p_rgh, Initial residual = 1.0674e-05, Final residual = 3.63328e-06, No Iterations 1000
time step continuity errors : sum local = 3.71208e-07, global = 3.00389e-09, cumulative = 5.48449e-07
rho min/max : 0.96579 1.20452
ExecutionTime = 2846.99 s  ClockTime = 2854 s

    min/max/integ(walls) = 100, 100, 7.53638
Time = 577

smoothSolver:  Solving for Ux, Initial residual = 1.26662e-05, Final residual = 1.03627e-06, No Iterations 2
smoothSolver:  Solving for Uy, Initial residual = 1.26274e-05, Final residual = 1.03299e-06, No Iterations 2
smoothSolver:  Solving for Uz, Initial residual = 0.000193798, Final residual = 1.6385e-05, No Iterations 2
smoothSolver:  Solving for h, Initial residual = 0.00318547, Final residual = 0.00028166, No Iterations 2
GAMG:  Solving for p_rgh, Initial residual = 1.06715e-05, Final residual = 3.62108e-06, No Iterations 1000
time step continuity errors : sum local = 3.69242e-07, global = -3.8152e-10, cumulative = 5.48068e-07
rho min/max : 0.965521 1.20452
ExecutionTime = 2851.99 s  ClockTime = 2859 s

    min/max/integ(walls) = 100, 100, 7.53638
Time = 578

smoothSolver:  Solving for Ux, Initial residual = 1.26443e-05, Final residual = 1.03456e-06, No Iterations 2
smoothSolver:  Solving for Uy, Initial residual = 1.26173e-05, Final residual = 1.03254e-06, No Iterations 2
smoothSolver:  Solving for Uz, Initial residual = 0.000193614, Final residual = 1.63694e-05, No Iterations 2
smoothSolver:  Solving for h, Initial residual = 0.00317601, Final residual = 0.000280822, No Iterations 2
GAMG:  Solving for p_rgh, Initial residual = 1.06668e-05, Final residual = 3.66052e-06, No Iterations 1000
time step continuity errors : sum local = 3.72192e-07, global = -3.07101e-09, cumulative = 5.44997e-07
rho min/max : 0.965253 1.20452
ExecutionTime = 2857.58 s  ClockTime = 2865 s

    min/max/integ(walls) = 100, 100, 7.53638
Time = 579

smoothSolver:  Solving for Ux, Initial residual = 1.26277e-05, Final residual = 1.033e-06, No Iterations 2
smoothSolver:  Solving for Uy, Initial residual = 1.25955e-05, Final residual = 1.0298e-06, No Iterations 2
smoothSolver:  Solving for Uz, Initial residual = 0.000193429, Final residual = 1.63536e-05, No Iterations 2
smoothSolver:  Solving for h, Initial residual = 0.00316655, Final residual = 0.000279986, No Iterations 2
GAMG:  Solving for p_rgh, Initial residual = 1.06625e-05, Final residual = 3.61752e-06, No Iterations 1000
time step continuity errors : sum local = 3.69327e-07, global = 1.4471e-09, cumulative = 5.46444e-07
rho min/max : 0.964984 1.20452
ExecutionTime = 2862.49 s  ClockTime = 2870 s

    min/max/integ(walls) = 100, 100, 7.53638
Time = 580

smoothSolver:  Solving for Ux, Initial residual = 1.25846e-05, Final residual = 1.02916e-06, No Iterations 2
smoothSolver:  Solving for Uy, Initial residual = 1.2595e-05, Final residual = 1.02987e-06, No Iterations 2
smoothSolver:  Solving for Uz, Initial residual = 0.000193249, Final residual = 1.63383e-05, No Iterations 2
smoothSolver:  Solving for h, Initial residual = 0.00315714, Final residual = 0.000279152, No Iterations 2
GAMG:  Solving for p_rgh, Initial residual = 1.06607e-05, Final residual = 3.60477e-06, No Iterations 1000
time step continuity errors : sum local = 3.69855e-07, global = -6.60744e-11, cumulative = 5.46378e-07
rho min/max : 0.964716 1.20452
ExecutionTime = 2867.57 s  ClockTime = 2875 s

    min/max/integ(walls) = 100, 100, 7.53638
Time = 581

smoothSolver:  Solving for Ux, Initial residual = 1.25708e-05, Final residual = 1.02832e-06, No Iterations 2
smoothSolver:  Solving for Uy, Initial residual = 1.2603e-05, Final residual = 1.03068e-06, No Iterations 2
smoothSolver:  Solving for Uz, Initial residual = 0.000193068, Final residual = 1.63229e-05, No Iterations 2
smoothSolver:  Solving for h, Initial residual = 0.00314773, Final residual = 0.000278319, No Iterations 2
GAMG:  Solving for p_rgh, Initial residual = 1.06088e-05, Final residual = 3.61604e-06, No Iterations 1000
time step continuity errors : sum local = 3.68472e-07, global = 4.75448e-10, cumulative = 5.46853e-07
rho min/max : 0.964448 1.20452
ExecutionTime = 2873.33 s  ClockTime = 2881 s

    min/max/integ(walls) = 100, 100, 7.53638
Time = 582

smoothSolver:  Solving for Ux, Initial residual = 1.26031e-05, Final residual = 1.03089e-06, No Iterations 2
smoothSolver:  Solving for Uy, Initial residual = 1.25949e-05, Final residual = 1.02992e-06, No Iterations 2
smoothSolver:  Solving for Uz, Initial residual = 0.000192882, Final residual = 1.63071e-05, No Iterations 2
smoothSolver:  Solving for h, Initial residual = 0.00313834, Final residual = 0.000277488, No Iterations 2
GAMG:  Solving for p_rgh, Initial residual = 1.06292e-05, Final residual = 3.61475e-06, No Iterations 1000
time step continuity errors : sum local = 3.69419e-07, global = 1.95197e-09, cumulative = 5.48805e-07
rho min/max : 0.96418 1.20452
ExecutionTime = 2878.68 s  ClockTime = 2886 s

    min/max/integ(walls) = 100, 100, 7.53638
Time = 583

smoothSolver:  Solving for Ux, Initial residual = 1.25909e-05, Final residual = 1.02911e-06, No Iterations 2
smoothSolver:  Solving for Uy, Initial residual = 1.25776e-05, Final residual = 1.02893e-06, No Iterations 2
smoothSolver:  Solving for Uz, Initial residual = 0.000192706, Final residual = 1.62921e-05, No Iterations 2
smoothSolver:  Solving for h, Initial residual = 0.00312895, Final residual = 0.000276658, No Iterations 2
GAMG:  Solving for p_rgh, Initial residual = 1.06193e-05, Final residual = 3.61478e-06, No Iterations 1000
time step continuity errors : sum local = 3.68122e-07, global = -5.62539e-10, cumulative = 5.48243e-07
rho min/max : 0.963912 1.20452
ExecutionTime = 2883.84 s  ClockTime = 2891 s

    min/max/integ(walls) = 100, 100, 7.53638
Time = 584

smoothSolver:  Solving for Ux, Initial residual = 1.25483e-05, Final residual = 1.02662e-06, No Iterations 2
smoothSolver:  Solving for Uy, Initial residual = 1.25169e-05, Final residual = 1.02396e-06, No Iterations 2
smoothSolver:  Solving for Uz, Initial residual = 0.000192514, Final residual = 1.62759e-05, No Iterations 2
smoothSolver:  Solving for h, Initial residual = 0.00311959, Final residual = 0.00027583, No Iterations 2
GAMG:  Solving for p_rgh, Initial residual = 1.06467e-05, Final residual = 3.60117e-06, No Iterations 1000
time step continuity errors : sum local = 3.68682e-07, global = -2.09281e-09, cumulative = 5.4615e-07
rho min/max : 0.963645 1.20452
ExecutionTime = 2888.95 s  ClockTime = 2896 s

    min/max/integ(walls) = 100, 100, 7.53638
Time = 585

smoothSolver:  Solving for Ux, Initial residual = 1.25186e-05, Final residual = 1.0242e-06, No Iterations 2
smoothSolver:  Solving for Uy, Initial residual = 1.25169e-05, Final residual = 1.02325e-06, No Iterations 2
smoothSolver:  Solving for Uz, Initial residual = 0.000192327, Final residual = 1.626e-05, No Iterations 2
smoothSolver:  Solving for h, Initial residual = 0.00311027, Final residual = 0.000275004, No Iterations 2
GAMG:  Solving for p_rgh, Initial residual = 1.05999e-05, Final residual = 3.62034e-06, No Iterations 1000
time step continuity errors : sum local = 3.69325e-07, global = -5.98215e-10, cumulative = 5.45552e-07
rho min/max : 0.963377 1.20452
ExecutionTime = 2893.8 s  ClockTime = 2901 s

    min/max/integ(walls) = 100, 100, 7.53638
Time = 586

smoothSolver:  Solving for Ux, Initial residual = 1.24988e-05, Final residual = 1.0225e-06, No Iterations 2
smoothSolver:  Solving for Uy, Initial residual = 1.24965e-05, Final residual = 1.02148e-06, No Iterations 2
smoothSolver:  Solving for Uz, Initial residual = 0.000192153, Final residual = 1.62451e-05, No Iterations 2
smoothSolver:  Solving for h, Initial residual = 0.00310096, Final residual = 0.000274181, No Iterations 2
GAMG:  Solving for p_rgh, Initial residual = 1.06351e-05, Final residual = 3.59651e-06, No Iterations 1000
time step continuity errors : sum local = 3.69862e-07, global = -1.73939e-09, cumulative = 5.43812e-07
rho min/max : 0.96311 1.20452
ExecutionTime = 2898.86 s  ClockTime = 2906 s

    min/max/integ(walls) = 100, 100, 7.53638
Time = 587

smoothSolver:  Solving for Ux, Initial residual = 1.25085e-05, Final residual = 1.023e-06, No Iterations 2
smoothSolver:  Solving for Uy, Initial residual = 1.2493e-05, Final residual = 1.02141e-06, No Iterations 2
smoothSolver:  Solving for Uz, Initial residual = 0.000191979, Final residual = 1.62303e-05, No Iterations 2
smoothSolver:  Solving for h, Initial residual = 0.00309168, Final residual = 0.000273359, No Iterations 2
GAMG:  Solving for p_rgh, Initial residual = 1.06315e-05, Final residual = 3.60257e-06, No Iterations 1000
time step continuity errors : sum local = 3.70093e-07, global = -9.856e-10, cumulative = 5.42827e-07
rho min/max : 0.962843 1.20452
ExecutionTime = 2904 s  ClockTime = 2912 s

    min/max/integ(walls) = 100, 100, 7.53638
Time = 588

smoothSolver:  Solving for Ux, Initial residual = 1.25112e-05, Final residual = 1.0225e-06, No Iterations 2
smoothSolver:  Solving for Uy, Initial residual = 1.24759e-05, Final residual = 1.01975e-06, No Iterations 2
smoothSolver:  Solving for Uz, Initial residual = 0.000191796, Final residual = 1.62148e-05, No Iterations 2
smoothSolver:  Solving for h, Initial residual = 0.00308243, Final residual = 0.00027254, No Iterations 2
GAMG:  Solving for p_rgh, Initial residual = 1.06371e-05, Final residual = 3.60545e-06, No Iterations 1000
time step continuity errors : sum local = 3.69074e-07, global = 8.10777e-10, cumulative = 5.43637e-07
rho min/max : 0.962576 1.20452
ExecutionTime = 2908.72 s  ClockTime = 2916 s

    min/max/integ(walls) = 100, 100, 7.53638
Time = 589

smoothSolver:  Solving for Ux, Initial residual = 1.25001e-05, Final residual = 1.02169e-06, No Iterations 2
smoothSolver:  Solving for Uy, Initial residual = 1.2486e-05, Final residual = 1.01995e-06, No Iterations 2
smoothSolver:  Solving for Uz, Initial residual = 0.000191613, Final residual = 1.61992e-05, No Iterations 2
smoothSolver:  Solving for h, Initial residual = 0.0030732, Final residual = 0.000271724, No Iterations 2
GAMG:  Solving for p_rgh, Initial residual = 1.06468e-05, Final residual = 3.63985e-06, No Iterations 1000
time step continuity errors : sum local = 3.70057e-07, global = 2.04471e-09, cumulative = 5.45682e-07
rho min/max : 0.962309 1.20452
ExecutionTime = 2913.69 s  ClockTime = 2921 s

    min/max/integ(walls) = 100, 100, 7.53638
Time = 590

smoothSolver:  Solving for Ux, Initial residual = 1.2466e-05, Final residual = 1.01904e-06, No Iterations 2
smoothSolver:  Solving for Uy, Initial residual = 1.24761e-05, Final residual = 1.01964e-06, No Iterations 2
smoothSolver:  Solving for Uz, Initial residual = 0.000191428, Final residual = 1.61835e-05, No Iterations 2
smoothSolver:  Solving for h, Initial residual = 0.00306401, Final residual = 0.00027091, No Iterations 2
GAMG:  Solving for p_rgh, Initial residual = 1.06661e-05, Final residual = 3.59246e-06, No Iterations 1000
time step continuity errors : sum local = 3.6767e-07, global = -7.188e-11, cumulative = 5.4561e-07
rho min/max : 0.962042 1.20452
ExecutionTime = 2918.58 s  ClockTime = 2926 s

    min/max/integ(walls) = 100, 100, 7.53638
Time = 591

smoothSolver:  Solving for Ux, Initial residual = 1.2461e-05, Final residual = 1.01864e-06, No Iterations 2
smoothSolver:  Solving for Uy, Initial residual = 1.24406e-05, Final residual = 1.01665e-06, No Iterations 2
smoothSolver:  Solving for Uz, Initial residual = 0.000191245, Final residual = 1.6168e-05, No Iterations 2
smoothSolver:  Solving for h, Initial residual = 0.00305484, Final residual = 0.000270099, No Iterations 2
GAMG:  Solving for p_rgh, Initial residual = 1.06541e-05, Final residual = 3.62964e-06, No Iterations 1000
time step continuity errors : sum local = 3.70388e-07, global = -2.65893e-10, cumulative = 5.45344e-07
rho min/max : 0.961775 1.20452
ExecutionTime = 2923.43 s  ClockTime = 2931 s

    min/max/integ(walls) = 100, 100, 7.53638
Time = 592

smoothSolver:  Solving for Ux, Initial residual = 1.24499e-05, Final residual = 1.01775e-06, No Iterations 2
smoothSolver:  Solving for Uy, Initial residual = 1.24488e-05, Final residual = 1.01752e-06, No Iterations 2
smoothSolver:  Solving for Uz, Initial residual = 0.000191057, Final residual = 1.61521e-05, No Iterations 2
smoothSolver:  Solving for h, Initial residual = 0.00304569, Final residual = 0.00026929, No Iterations 2
GAMG:  Solving for p_rgh, Initial residual = 1.06551e-05, Final residual = 3.6002e-06, No Iterations 1000
time step continuity errors : sum local = 3.67311e-07, global = -8.43508e-11, cumulative = 5.4526e-07
rho min/max : 0.961509 1.20452
ExecutionTime = 2928.04 s  ClockTime = 2936 s

    min/max/integ(walls) = 100, 100, 7.53638
Time = 593

smoothSolver:  Solving for Ux, Initial residual = 1.242e-05, Final residual = 1.01576e-06, No Iterations 2
smoothSolver:  Solving for Uy, Initial residual = 1.24315e-05, Final residual = 1.01682e-06, No Iterations 2
smoothSolver:  Solving for Uz, Initial residual = 0.00019088, Final residual = 1.6137e-05, No Iterations 2
smoothSolver:  Solving for h, Initial residual = 0.00303658, Final residual = 0.000268483, No Iterations 2
GAMG:  Solving for p_rgh, Initial residual = 1.0637e-05, Final residual = 3.61795e-06, No Iterations 1000
time step continuity errors : sum local = 3.67685e-07, global = -6.26176e-10, cumulative = 5.44634e-07
rho min/max : 0.961243 1.20452
ExecutionTime = 2932.96 s  ClockTime = 2941 s

    min/max/integ(walls) = 100, 100, 7.53638
Time = 594

smoothSolver:  Solving for Ux, Initial residual = 1.24199e-05, Final residual = 1.01577e-06, No Iterations 2
smoothSolver:  Solving for Uy, Initial residual = 1.23933e-05, Final residual = 1.01316e-06, No Iterations 2
smoothSolver:  Solving for Uz, Initial residual = 0.000190709, Final residual = 1.61224e-05, No Iterations 2
smoothSolver:  Solving for h, Initial residual = 0.00302749, Final residual = 0.000267679, No Iterations 2
GAMG:  Solving for p_rgh, Initial residual = 1.06343e-05, Final residual = 3.58854e-06, No Iterations 1000
time step continuity errors : sum local = 3.69235e-07, global = 5.99202e-10, cumulative = 5.45233e-07
rho min/max : 0.960977 1.20452
ExecutionTime = 2937.55 s  ClockTime = 2945 s

    min/max/integ(walls) = 100, 100, 7.53638
Time = 595

smoothSolver:  Solving for Ux, Initial residual = 1.24114e-05, Final residual = 1.01534e-06, No Iterations 2
smoothSolver:  Solving for Uy, Initial residual = 1.23931e-05, Final residual = 1.01331e-06, No Iterations 2
smoothSolver:  Solving for Uz, Initial residual = 0.000190529, Final residual = 1.61071e-05, No Iterations 2
smoothSolver:  Solving for h, Initial residual = 0.00301841, Final residual = 0.000266876, No Iterations 2
GAMG:  Solving for p_rgh, Initial residual = 1.0627e-05, Final residual = 3.60602e-06, No Iterations 1000
time step continuity errors : sum local = 3.67799e-07, global = 1.07341e-09, cumulative = 5.46306e-07
rho min/max : 0.960711 1.20452
ExecutionTime = 2942.66 s  ClockTime = 2950 s

    min/max/integ(walls) = 100, 100, 7.53638
Time = 596

smoothSolver:  Solving for Ux, Initial residual = 1.2377e-05, Final residual = 1.01209e-06, No Iterations 2
smoothSolver:  Solving for Uy, Initial residual = 1.2411e-05, Final residual = 1.01503e-06, No Iterations 2
smoothSolver:  Solving for Uz, Initial residual = 0.000190342, Final residual = 1.60913e-05, No Iterations 2
smoothSolver:  Solving for h, Initial residual = 0.00300936, Final residual = 0.000266075, No Iterations 2
GAMG:  Solving for p_rgh, Initial residual = 1.06108e-05, Final residual = 3.62834e-06, No Iterations 1000
time step continuity errors : sum local = 3.68318e-07, global = 2.72945e-09, cumulative = 5.49036e-07
rho min/max : 0.960445 1.20452
ExecutionTime = 2947.36 s  ClockTime = 2955 s

    min/max/integ(walls) = 100, 100, 7.53638
Time = 597

smoothSolver:  Solving for Ux, Initial residual = 1.23649e-05, Final residual = 1.01153e-06, No Iterations 2
smoothSolver:  Solving for Uy, Initial residual = 1.23802e-05, Final residual = 1.01263e-06, No Iterations 2
smoothSolver:  Solving for Uz, Initial residual = 0.000190156, Final residual = 1.60756e-05, No Iterations 2
smoothSolver:  Solving for h, Initial residual = 0.00300034, Final residual = 0.000265277, No Iterations 2
GAMG:  Solving for p_rgh, Initial residual = 1.05817e-05, Final residual = 3.59421e-06, No Iterations 1000
time step continuity errors : sum local = 3.67145e-07, global = 9.5818e-10, cumulative = 5.49994e-07
rho min/max : 0.960179 1.20452
ExecutionTime = 2952.3 s  ClockTime = 2960 s

    min/max/integ(walls) = 100, 100, 7.53638
Time = 598

smoothSolver:  Solving for Ux, Initial residual = 1.23982e-05, Final residual = 1.0146e-06, No Iterations 2
smoothSolver:  Solving for Uy, Initial residual = 1.23499e-05, Final residual = 1.00965e-06, No Iterations 2
smoothSolver:  Solving for Uz, Initial residual = 0.000189973, Final residual = 1.606e-05, No Iterations 2
smoothSolver:  Solving for h, Initial residual = 0.00299135, Final residual = 0.000264481, No Iterations 2
GAMG:  Solving for p_rgh, Initial residual = 1.05951e-05, Final residual = 3.60888e-06, No Iterations 1000
time step continuity errors : sum local = 3.66696e-07, global = -1.07364e-09, cumulative = 5.4892e-07
rho min/max : 0.959913 1.20452
ExecutionTime = 2957.31 s  ClockTime = 2965 s

    min/max/integ(walls) = 100, 100, 7.53638
Time = 599

smoothSolver:  Solving for Ux, Initial residual = 1.2361e-05, Final residual = 1.01103e-06, No Iterations 2
smoothSolver:  Solving for Uy, Initial residual = 1.23633e-05, Final residual = 1.01047e-06, No Iterations 2
smoothSolver:  Solving for Uz, Initial residual = 0.000189793, Final residual = 1.60447e-05, No Iterations 2
smoothSolver:  Solving for h, Initial residual = 0.00298236, Final residual = 0.000263686, No Iterations 2
GAMG:  Solving for p_rgh, Initial residual = 1.05682e-05, Final residual = 3.59634e-06, No Iterations 1000
time step continuity errors : sum local = 3.68304e-07, global = -2.03079e-10, cumulative = 5.48717e-07
rho min/max : 0.959648 1.20452
ExecutionTime = 2961.95 s  ClockTime = 2970 s

    min/max/integ(walls) = 100, 100, 7.53638
Time = 600

smoothSolver:  Solving for Ux, Initial residual = 1.23388e-05, Final residual = 1.00878e-06, No Iterations 2
smoothSolver:  Solving for Uy, Initial residual = 1.23556e-05, Final residual = 1.01029e-06, No Iterations 2
smoothSolver:  Solving for Uz, Initial residual = 0.000189614, Final residual = 1.60295e-05, No Iterations 2
smoothSolver:  Solving for h, Initial residual = 0.00297337, Final residual = 0.000262891, No Iterations 2
GAMG:  Solving for p_rgh, Initial residual = 1.05851e-05, Final residual = 3.62369e-06, No Iterations 1000
time step continuity errors : sum local = 3.68743e-07, global = -3.19876e-09, cumulative = 5.45519e-07
rho min/max : 0.959383 1.20452
ExecutionTime = 2966.87 s  ClockTime = 2975 s

    min/max/integ(walls) = 100, 100, 7.53638
Time = 601

smoothSolver:  Solving for Ux, Initial residual = 1.23395e-05, Final residual = 1.00866e-06, No Iterations 2
smoothSolver:  Solving for Uy, Initial residual = 1.23384e-05, Final residual = 1.00925e-06, No Iterations 2
smoothSolver:  Solving for Uz, Initial residual = 0.000189435, Final residual = 1.60143e-05, No Iterations 2
smoothSolver:  Solving for h, Initial residual = 0.00296442, Final residual = 0.000262098, No Iterations 2
