/*---------------------------------------------------------------------------*\
| =========                 |                                                 |
| \\      /  F ield         | OpenFOAM: The Open Source CFD Toolbox           |
|  \\    /   O peration     | Version:  2312                                  |
|   \\  /    A nd           | Website:  www.openfoam.com                      |
|    \\/     M anipulation  |                                                 |
\*---------------------------------------------------------------------------*/
Build  : _c39a0f64-20231220 OPENFOAM=2312 version=2312
Arch   : "LSB;label=32;scalar=64"
Exec   : simpleFoam -parallel
Date   : May 12 2024
Time   : 17:30:01
Host   : kamakiri
PID    : 74137
I/O    : uncollated
Case   : /home/kamakiri/OpenFOAM/kamakiri-v2312/run/Cylinder_snappyHexMesh
nProcs : 4
Hosts  :
(
    (kamakiri 4)
)
Pstream initialized with:
    floatTransfer      : false
    nProcsSimpleSum    : 0
    nonBlockingExchange: 0 (tuning: 0)
    exchange algorithm : 0
    commsType          : nonBlocking
    polling iterations : 0
trapFpe: Floating point exception trapping enabled (FOAM_SIGFPE).
fileModificationChecking : Monitoring run-time modified files using timeStampMaster (fileModificationSkew 5, maxFileModificationPolls 20)
allowSystemOperations : Allowing user-supplied system call operations

// * * * * * * * * * * * * * * * * * * * * * * * * * * * * * * * * * * * * * //
Create time

Create mesh for time = 0


SIMPLE: convergence criteria
    field p	 tolerance 1e-05
    field U	 tolerance 1e-06
    field "(k|epsilon|omega|f|v2)"	 tolerance 1e-06

Reading field p

Reading field U

Reading/calculating face flux field phi

Selecting incompressible transport model Newtonian
Selecting turbulence model type laminar
Selecting laminar stress model Stokes
No MRF models present

No finite volume options present

Starting time loop

Time = 1

smoothSolver:  Solving for Ux, Initial residual = 1, Final residual = 0.0199866, No Iterations 2
smoothSolver:  Solving for Uy, Initial residual = 1, Final residual = 0.0200013, No Iterations 2
smoothSolver:  Solving for Uz, Initial residual = 1, Final residual = 0.0717167, No Iterations 2
GAMG:  Solving for p, Initial residual = 1, Final residual = 0.0998138, No Iterations 164
time step continuity errors : sum local = 0.0033373, global = 3.19414e-05, cumulative = 3.19414e-05
ExecutionTime = 0.35 s  ClockTime = 0 s

Time = 2

smoothSolver:  Solving for Ux, Initial residual = 0.600753, Final residual = 0.0317996, No Iterations 2
smoothSolver:  Solving for Uy, Initial residual = 0.603149, Final residual = 0.0318365, No Iterations 2
smoothSolver:  Solving for Uz, Initial residual = 0.134509, Final residual = 0.00726951, No Iterations 3
GAMG:  Solving for p, Initial residual = 0.00558089, Final residual = 0.000545637, No Iterations 42
time step continuity errors : sum local = 0.00479172, global = 5.01858e-05, cumulative = 8.21273e-05
ExecutionTime = 0.42 s  ClockTime = 0 s

Time = 3

smoothSolver:  Solving for Ux, Initial residual = 0.493581, Final residual = 0.0284192, No Iterations 2
smoothSolver:  Solving for Uy, Initial residual = 0.494563, Final residual = 0.0284332, No Iterations 2
smoothSolver:  Solving for Uz, Initial residual = 0.063115, Final residual = 0.00472249, No Iterations 3
GAMG:  Solving for p, Initial residual = 0.00429903, Final residual = 0.000421784, No Iterations 42
time step continuity errors : sum local = 0.00389339, global = 7.30913e-05, cumulative = 0.000155219
ExecutionTime = 0.48 s  ClockTime = 0 s

Time = 4

smoothSolver:  Solving for Ux, Initial residual = 0.425518, Final residual = 0.0225537, No Iterations 2
smoothSolver:  Solving for Uy, Initial residual = 0.423684, Final residual = 0.0224524, No Iterations 2
smoothSolver:  Solving for Uz, Initial residual = 0.0369396, Final residual = 0.00322716, No Iterations 3
GAMG:  Solving for p, Initial residual = 0.00349178, Final residual = 0.000337731, No Iterations 82
time step continuity errors : sum local = 0.0030294, global = 1.01992e-05, cumulative = 0.000165418
ExecutionTime = 0.6 s  ClockTime = 0 s

Time = 5

smoothSolver:  Solving for Ux, Initial residual = 0.37102, Final residual = 0.017697, No Iterations 2
smoothSolver:  Solving for Uy, Initial residual = 0.371038, Final residual = 0.0175554, No Iterations 2
smoothSolver:  Solving for Uz, Initial residual = 0.0276799, Final residual = 0.00202117, No Iterations 3
GAMG:  Solving for p, Initial residual = 0.00321556, Final residual = 0.000310341, No Iterations 78
time step continuity errors : sum local = 0.00242554, global = -2.55026e-06, cumulative = 0.000162868
ExecutionTime = 0.71 s  ClockTime = 0 s

Time = 6

smoothSolver:  Solving for Ux, Initial residual = 0.322643, Final residual = 0.0135335, No Iterations 2
smoothSolver:  Solving for Uy, Initial residual = 0.322781, Final residual = 0.0135309, No Iterations 2
smoothSolver:  Solving for Uz, Initial residual = 0.0189281, Final residual = 0.00139001, No Iterations 3
GAMG:  Solving for p, Initial residual = 0.00299988, Final residual = 0.000297574, No Iterations 48
time step continuity errors : sum local = 0.00216663, global = 8.03923e-06, cumulative = 0.000170907
ExecutionTime = 0.8 s  ClockTime = 0 s

Time = 7

smoothSolver:  Solving for Ux, Initial residual = 0.281183, Final residual = 0.0111208, No Iterations 2
smoothSolver:  Solving for Uy, Initial residual = 0.281664, Final residual = 0.0112014, No Iterations 2
smoothSolver:  Solving for Uz, Initial residual = 0.0132151, Final residual = 0.00101361, No Iterations 3
GAMG:  Solving for p, Initial residual = 0.00273836, Final residual = 0.000272842, No Iterations 50
time step continuity errors : sum local = 0.00190647, global = 9.79659e-06, cumulative = 0.000180703
ExecutionTime = 0.88 s  ClockTime = 0 s

Time = 8

smoothSolver:  Solving for Ux, Initial residual = 0.255181, Final residual = 0.00925006, No Iterations 2
smoothSolver:  Solving for Uy, Initial residual = 0.255806, Final residual = 0.00939166, No Iterations 2
smoothSolver:  Solving for Uz, Initial residual = 0.00979444, Final residual = 0.000763516, No Iterations 3
GAMG:  Solving for p, Initial residual = 0.00254084, Final residual = 0.000245248, No Iterations 42
time step continuity errors : sum local = 0.0016692, global = 1.43392e-05, cumulative = 0.000195043
ExecutionTime = 0.95 s  ClockTime = 1 s

Time = 9

smoothSolver:  Solving for Ux, Initial residual = 0.232726, Final residual = 0.00779266, No Iterations 2
smoothSolver:  Solving for Uy, Initial residual = 0.233202, Final residual = 0.00790707, No Iterations 2
smoothSolver:  Solving for Uz, Initial residual = 0.00742031, Final residual = 0.000585493, No Iterations 3
GAMG:  Solving for p, Initial residual = 0.00236324, Final residual = 0.000227892, No Iterations 34
time step continuity errors : sum local = 0.00152229, global = 1.77249e-05, cumulative = 0.000212767
ExecutionTime = 1.01 s  ClockTime = 1 s

Time = 10

smoothSolver:  Solving for Ux, Initial residual = 0.211632, Final residual = 0.00659039, No Iterations 2
smoothSolver:  Solving for Uy, Initial residual = 0.211919, Final residual = 0.00665854, No Iterations 2
smoothSolver:  Solving for Uz, Initial residual = 0.00573875, Final residual = 0.000453946, No Iterations 3
GAMG:  Solving for p, Initial residual = 0.00217571, Final residual = 0.000217153, No Iterations 30
time step continuity errors : sum local = 0.00143218, global = 1.97115e-05, cumulative = 0.000232479
ExecutionTime = 1.06 s  ClockTime = 1 s

Time = 11

smoothSolver:  Solving for Ux, Initial residual = 0.193148, Final residual = 0.00560718, No Iterations 2
smoothSolver:  Solving for Uy, Initial residual = 0.193192, Final residual = 0.00564453, No Iterations 2
smoothSolver:  Solving for Uz, Initial residual = 0.00450848, Final residual = 0.000354064, No Iterations 3
GAMG:  Solving for p, Initial residual = 0.00199962, Final residual = 0.000192355, No Iterations 30
time step continuity errors : sum local = 0.00125593, global = 1.73794e-05, cumulative = 0.000249858
ExecutionTime = 1.12 s  ClockTime = 1 s

Time = 12

smoothSolver:  Solving for Ux, Initial residual = 0.176307, Final residual = 0.00483834, No Iterations 2
smoothSolver:  Solving for Uy, Initial residual = 0.176275, Final residual = 0.0048602, No Iterations 2
smoothSolver:  Solving for Uz, Initial residual = 0.00361879, Final residual = 0.000277625, No Iterations 3
GAMG:  Solving for p, Initial residual = 0.00182633, Final residual = 0.000176564, No Iterations 24
time step continuity errors : sum local = 0.00114279, global = 1.74004e-05, cumulative = 0.000267259
ExecutionTime = 1.16 s  ClockTime = 1 s

Time = 13

smoothSolver:  Solving for Ux, Initial residual = 0.16136, Final residual = 0.00422544, No Iterations 2
smoothSolver:  Solving for Uy, Initial residual = 0.161306, Final residual = 0.00424121, No Iterations 2
smoothSolver:  Solving for Uz, Initial residual = 0.00286039, Final residual = 0.000218149, No Iterations 3
GAMG:  Solving for p, Initial residual = 0.00167006, Final residual = 0.000165418, No Iterations 20
time step continuity errors : sum local = 0.00106498, global = 1.79616e-05, cumulative = 0.00028522
ExecutionTime = 1.21 s  ClockTime = 1 s

Time = 14

smoothSolver:  Solving for Ux, Initial residual = 0.147289, Final residual = 0.00370022, No Iterations 2
smoothSolver:  Solving for Uy, Initial residual = 0.147263, Final residual = 0.00372251, No Iterations 2
smoothSolver:  Solving for Uz, Initial residual = 0.00228686, Final residual = 0.000172228, No Iterations 3
GAMG:  Solving for p, Initial residual = 0.00152955, Final residual = 0.000152554, No Iterations 18
time step continuity errors : sum local = 0.000978483, global = 1.86274e-05, cumulative = 0.000303848
ExecutionTime = 1.26 s  ClockTime = 1 s

Time = 15

smoothSolver:  Solving for Ux, Initial residual = 0.134029, Final residual = 0.00325486, No Iterations 2
smoothSolver:  Solving for Uy, Initial residual = 0.134045, Final residual = 0.00328144, No Iterations 2
smoothSolver:  Solving for Uz, Initial residual = 0.00185532, Final residual = 0.000136615, No Iterations 3
GAMG:  Solving for p, Initial residual = 0.00140361, Final residual = 0.000138897, No Iterations 16
time step continuity errors : sum local = 0.000888107, global = 1.8821e-05, cumulative = 0.000322669
ExecutionTime = 1.29 s  ClockTime = 1 s

Time = 16

smoothSolver:  Solving for Ux, Initial residual = 0.121798, Final residual = 0.00288322, No Iterations 2
smoothSolver:  Solving for Uy, Initial residual = 0.121853, Final residual = 0.00291182, No Iterations 2
smoothSolver:  Solving for Uz, Initial residual = 0.00150809, Final residual = 0.000108817, No Iterations 3
GAMG:  Solving for p, Initial residual = 0.00128766, Final residual = 0.000125704, No Iterations 14
time step continuity errors : sum local = 0.000801781, global = 1.888e-05, cumulative = 0.000341549
ExecutionTime = 1.33 s  ClockTime = 1 s

Time = 17

smoothSolver:  Solving for Ux, Initial residual = 0.110748, Final residual = 0.00256774, No Iterations 2
smoothSolver:  Solving for Uy, Initial residual = 0.110825, Final residual = 0.00259715, No Iterations 2
smoothSolver:  Solving for Uz, Initial residual = 0.00122743, Final residual = 8.70432e-05, No Iterations 3
GAMG:  Solving for p, Initial residual = 0.00118135, Final residual = 0.000114392, No Iterations 12
time step continuity errors : sum local = 0.000728296, global = 1.9112e-05, cumulative = 0.000360661
ExecutionTime = 1.36 s  ClockTime = 1 s

Time = 18

smoothSolver:  Solving for Ux, Initial residual = 0.100569, Final residual = 0.00228187, No Iterations 2
smoothSolver:  Solving for Uy, Initial residual = 0.100636, Final residual = 0.00231127, No Iterations 2
smoothSolver:  Solving for Uz, Initial residual = 0.00100203, Final residual = 6.97883e-05, No Iterations 3
GAMG:  Solving for p, Initial residual = 0.00108162, Final residual = 0.000105153, No Iterations 10
time step continuity errors : sum local = 0.000668629, global = 1.99505e-05, cumulative = 0.000380611
ExecutionTime = 1.39 s  ClockTime = 1 s

Time = 19

smoothSolver:  Solving for Ux, Initial residual = 0.0913181, Final residual = 0.00202721, No Iterations 2
smoothSolver:  Solving for Uy, Initial residual = 0.0913149, Final residual = 0.00205399, No Iterations 2
smoothSolver:  Solving for Uz, Initial residual = 0.00081688, Final residual = 5.59959e-05, No Iterations 3
GAMG:  Solving for p, Initial residual = 0.000989912, Final residual = 9.44617e-05, No Iterations 10
time step continuity errors : sum local = 0.000600161, global = 1.99673e-05, cumulative = 0.000400579
ExecutionTime = 1.42 s  ClockTime = 1 s

Time = 20

smoothSolver:  Solving for Ux, Initial residual = 0.0828252, Final residual = 0.00179713, No Iterations 2
smoothSolver:  Solving for Uy, Initial residual = 0.0827565, Final residual = 0.0018205, No Iterations 2
smoothSolver:  Solving for Uz, Initial residual = 0.000677944, Final residual = 4.50953e-05, No Iterations 3
GAMG:  Solving for p, Initial residual = 0.000906154, Final residual = 8.78005e-05, No Iterations 8
time step continuity errors : sum local = 0.000557362, global = 1.99789e-05, cumulative = 0.000420557
ExecutionTime = 1.45 s  ClockTime = 1 s

Time = 21

smoothSolver:  Solving for Ux, Initial residual = 0.0750962, Final residual = 0.00160605, No Iterations 2
smoothSolver:  Solving for Uy, Initial residual = 0.0750346, Final residual = 0.00162644, No Iterations 2
smoothSolver:  Solving for Uz, Initial residual = 0.000553868, Final residual = 3.63217e-05, No Iterations 3
GAMG:  Solving for p, Initial residual = 0.00083027, Final residual = 8.18662e-05, No Iterations 8
time step continuity errors : sum local = 0.00051946, global = 1.99414e-05, cumulative = 0.000440499
ExecutionTime = 1.48 s  ClockTime = 1 s

Time = 22

smoothSolver:  Solving for Ux, Initial residual = 0.0682598, Final residual = 0.00143255, No Iterations 2
smoothSolver:  Solving for Uy, Initial residual = 0.068217, Final residual = 0.00145056, No Iterations 2
smoothSolver:  Solving for Uz, Initial residual = 0.000462998, Final residual = 2.94073e-05, No Iterations 3
GAMG:  Solving for p, Initial residual = 0.000761297, Final residual = 7.44825e-05, No Iterations 10
time step continuity errors : sum local = 0.000472374, global = 1.78061e-05, cumulative = 0.000458305
ExecutionTime = 1.51 s  ClockTime = 1 s

Time = 23

smoothSolver:  Solving for Ux, Initial residual = 0.0622983, Final residual = 0.00128262, No Iterations 2
smoothSolver:  Solving for Uy, Initial residual = 0.0622674, Final residual = 0.00129613, No Iterations 2
smoothSolver:  Solving for Uz, Initial residual = 0.000399357, Final residual = 2.40681e-05, No Iterations 3
GAMG:  Solving for p, Initial residual = 0.000697619, Final residual = 6.92643e-05, No Iterations 9
time step continuity errors : sum local = 0.000438948, global = 1.50618e-05, cumulative = 0.000473367
ExecutionTime = 1.55 s  ClockTime = 1 s

Time = 24

smoothSolver:  Solving for Ux, Initial residual = 0.0577607, Final residual = 0.00119418, No Iterations 2
smoothSolver:  Solving for Uy, Initial residual = 0.0575616, Final residual = 0.00118767, No Iterations 2
smoothSolver:  Solving for Uz, Initial residual = 0.000353368, Final residual = 2.00467e-05, No Iterations 3
GAMG:  Solving for p, Initial residual = 0.000636858, Final residual = 5.95332e-05, No Iterations 7
time step continuity errors : sum local = 0.00037705, global = 1.07183e-05, cumulative = 0.000484085
ExecutionTime = 1.59 s  ClockTime = 1 s

Time = 25

smoothSolver:  Solving for Ux, Initial residual = 0.0529646, Final residual = 0.00108979, No Iterations 2
smoothSolver:  Solving for Uy, Initial residual = 0.0527241, Final residual = 0.00108269, No Iterations 2
smoothSolver:  Solving for Uz, Initial residual = 0.000291597, Final residual = 1.63357e-05, No Iterations 3
GAMG:  Solving for p, Initial residual = 0.000581813, Final residual = 5.51342e-05, No Iterations 5
time step continuity errors : sum local = 0.000349114, global = 6.98819e-06, cumulative = 0.000491073
ExecutionTime = 1.61 s  ClockTime = 1 s

Time = 26

smoothSolver:  Solving for Ux, Initial residual = 0.0484726, Final residual = 0.000984145, No Iterations 2
smoothSolver:  Solving for Uy, Initial residual = 0.048186, Final residual = 0.000975415, No Iterations 2
smoothSolver:  Solving for Uz, Initial residual = 0.00023506, Final residual = 1.32751e-05, No Iterations 3
GAMG:  Solving for p, Initial residual = 0.000530916, Final residual = 4.67327e-05, No Iterations 5
time step continuity errors : sum local = 0.00029593, global = 7.87992e-06, cumulative = 0.000498953
ExecutionTime = 1.64 s  ClockTime = 1 s

Time = 27

smoothSolver:  Solving for Ux, Initial residual = 0.0444115, Final residual = 0.000885301, No Iterations 2
smoothSolver:  Solving for Uy, Initial residual = 0.044179, Final residual = 0.00088283, No Iterations 2
smoothSolver:  Solving for Uz, Initial residual = 0.000200934, Final residual = 1.0943e-05, No Iterations 3
GAMG:  Solving for p, Initial residual = 0.000484643, Final residual = 4.76936e-05, No Iterations 3
time step continuity errors : sum local = 0.000302027, global = 7.60341e-06, cumulative = 0.000506556
ExecutionTime = 1.66 s  ClockTime = 1 s

Time = 28

smoothSolver:  Solving for Ux, Initial residual = 0.0405204, Final residual = 0.000797596, No Iterations 2
smoothSolver:  Solving for Uy, Initial residual = 0.0399893, Final residual = 0.000777095, No Iterations 2
smoothSolver:  Solving for Uz, Initial residual = 0.000162907, Final residual = 8.89728e-06, No Iterations 3
GAMG:  Solving for p, Initial residual = 0.00044346, Final residual = 4.38834e-05, No Iterations 3
time step continuity errors : sum local = 0.000277946, global = 6.73549e-06, cumulative = 0.000513292
ExecutionTime = 1.69 s  ClockTime = 1 s

Time = 29

smoothSolver:  Solving for Ux, Initial residual = 0.0370912, Final residual = 0.000717612, No Iterations 2
smoothSolver:  Solving for Uy, Initial residual = 0.0366548, Final residual = 0.000703758, No Iterations 2
smoothSolver:  Solving for Uz, Initial residual = 0.000139354, Final residual = 7.34012e-06, No Iterations 3
GAMG:  Solving for p, Initial residual = 0.00040592, Final residual = 3.96183e-05, No Iterations 3
time step continuity errors : sum local = 0.00025097, global = 5.67739e-06, cumulative = 0.000518969
ExecutionTime = 1.71 s  ClockTime = 1 s

Time = 30

smoothSolver:  Solving for Ux, Initial residual = 0.0340369, Final residual = 0.000648359, No Iterations 2
smoothSolver:  Solving for Uy, Initial residual = 0.033704, Final residual = 0.000641689, No Iterations 2
smoothSolver:  Solving for Uz, Initial residual = 0.000121497, Final residual = 6.1489e-06, No Iterations 3
GAMG:  Solving for p, Initial residual = 0.000371135, Final residual = 3.43136e-05, No Iterations 3
time step continuity errors : sum local = 0.000217393, global = 4.7835e-06, cumulative = 0.000523753
ExecutionTime = 1.74 s  ClockTime = 1 s

Time = 31

smoothSolver:  Solving for Ux, Initial residual = 0.0312688, Final residual = 0.00058648, No Iterations 2
smoothSolver:  Solving for Uy, Initial residual = 0.031047, Final residual = 0.000588753, No Iterations 2
smoothSolver:  Solving for Uz, Initial residual = 0.000107243, Final residual = 5.25492e-06, No Iterations 3
GAMG:  Solving for p, Initial residual = 0.000338804, Final residual = 2.83815e-05, No Iterations 3
time step continuity errors : sum local = 0.000179827, global = 6.46271e-06, cumulative = 0.000530216
ExecutionTime = 1.76 s  ClockTime = 1 s

Time = 32

smoothSolver:  Solving for Ux, Initial residual = 0.0287853, Final residual = 0.000536215, No Iterations 2
smoothSolver:  Solving for Uy, Initial residual = 0.0286411, Final residual = 0.00054565, No Iterations 2
smoothSolver:  Solving for Uz, Initial residual = 9.55615e-05, Final residual = 9.86123e-06, No Iterations 2
GAMG:  Solving for p, Initial residual = 0.000309317, Final residual = 2.40071e-05, No Iterations 3
time step continuity errors : sum local = 0.000152119, global = 3.48678e-06, cumulative = 0.000533702
ExecutionTime = 1.79 s  ClockTime = 1 s

Time = 33

smoothSolver:  Solving for Ux, Initial residual = 0.0264746, Final residual = 0.000488064, No Iterations 2
smoothSolver:  Solving for Uy, Initial residual = 0.0263072, Final residual = 0.000502982, No Iterations 2
smoothSolver:  Solving for Uz, Initial residual = 8.30996e-05, Final residual = 8.74209e-06, No Iterations 2
GAMG:  Solving for p, Initial residual = 0.000283208, Final residual = 2.71701e-05, No Iterations 2
time step continuity errors : sum local = 0.000172183, global = 2.36865e-06, cumulative = 0.000536071
ExecutionTime = 1.81 s  ClockTime = 1 s

Time = 34

smoothSolver:  Solving for Ux, Initial residual = 0.0240846, Final residual = 0.000448234, No Iterations 2
smoothSolver:  Solving for Uy, Initial residual = 0.0237674, Final residual = 0.000440983, No Iterations 2
smoothSolver:  Solving for Uz, Initial residual = 7.02308e-05, Final residual = 7.44625e-06, No Iterations 2
GAMG:  Solving for p, Initial residual = 0.000259138, Final residual = 2.4419e-05, No Iterations 3
time step continuity errors : sum local = 0.000154768, global = 1.19435e-06, cumulative = 0.000537265
ExecutionTime = 1.84 s  ClockTime = 1 s

Time = 35

smoothSolver:  Solving for Ux, Initial residual = 0.0226435, Final residual = 0.000403919, No Iterations 2
smoothSolver:  Solving for Uy, Initial residual = 0.0223627, Final residual = 0.000428057, No Iterations 2
smoothSolver:  Solving for Uz, Initial residual = 6.68342e-05, Final residual = 6.78767e-06, No Iterations 2
GAMG:  Solving for p, Initial residual = 0.0002375, Final residual = 2.22863e-05, No Iterations 2
time step continuity errors : sum local = 0.000141267, global = -5.34943e-07, cumulative = 0.00053673
ExecutionTime = 1.87 s  ClockTime = 1 s

Time = 36

smoothSolver:  Solving for Ux, Initial residual = 0.0201185, Final residual = 0.000377669, No Iterations 2
smoothSolver:  Solving for Uy, Initial residual = 0.0198527, Final residual = 0.000362559, No Iterations 2
smoothSolver:  Solving for Uz, Initial residual = 5.55739e-05, Final residual = 5.7136e-06, No Iterations 2
GAMG:  Solving for p, Initial residual = 0.00021716, Final residual = 1.49079e-05, No Iterations 3
time step continuity errors : sum local = 9.45071e-05, global = -1.54403e-06, cumulative = 0.000535186
ExecutionTime = 1.9 s  ClockTime = 1 s

Time = 37

smoothSolver:  Solving for Ux, Initial residual = 0.0185412, Final residual = 0.000332246, No Iterations 2
smoothSolver:  Solving for Uy, Initial residual = 0.0183944, Final residual = 0.000338919, No Iterations 2
smoothSolver:  Solving for Uz, Initial residual = 5.16408e-05, Final residual = 5.02058e-06, No Iterations 2
GAMG:  Solving for p, Initial residual = 0.000198296, Final residual = 1.45712e-05, No Iterations 3
time step continuity errors : sum local = 9.23821e-05, global = -1.31902e-06, cumulative = 0.000533867
ExecutionTime = 1.92 s  ClockTime = 1 s

Time = 38

smoothSolver:  Solving for Ux, Initial residual = 0.0170841, Final residual = 0.000305969, No Iterations 2
smoothSolver:  Solving for Uy, Initial residual = 0.0169295, Final residual = 0.000312871, No Iterations 2
smoothSolver:  Solving for Uz, Initial residual = 4.69485e-05, Final residual = 4.40581e-06, No Iterations 2
GAMG:  Solving for p, Initial residual = 0.000181254, Final residual = 1.10026e-05, No Iterations 4
time step continuity errors : sum local = 6.97645e-05, global = 2.34435e-06, cumulative = 0.000536212
ExecutionTime = 1.95 s  ClockTime = 2 s

Time = 39

smoothSolver:  Solving for Ux, Initial residual = 0.0157815, Final residual = 0.00028329, No Iterations 2
smoothSolver:  Solving for Uy, Initial residual = 0.0156248, Final residual = 0.000290487, No Iterations 2
smoothSolver:  Solving for Uz, Initial residual = 4.55976e-05, Final residual = 9.93649e-06, No Iterations 1
GAMG:  Solving for p, Initial residual = 0.000165514, Final residual = 1.36739e-05, No Iterations 2
time step continuity errors : sum local = 8.67159e-05, global = 9.96752e-07, cumulative = 0.000537208
ExecutionTime = 1.97 s  ClockTime = 2 s

Time = 40

smoothSolver:  Solving for Ux, Initial residual = 0.0141637, Final residual = 0.000252913, No Iterations 2
smoothSolver:  Solving for Uy, Initial residual = 0.013863, Final residual = 0.000243348, No Iterations 2
smoothSolver:  Solving for Uz, Initial residual = 3.62068e-05, Final residual = 8.87836e-06, No Iterations 1
GAMG:  Solving for p, Initial residual = 0.000151153, Final residual = 1.31546e-05, No Iterations 2
time step continuity errors : sum local = 8.34282e-05, global = -3.05331e-07, cumulative = 0.000536903
ExecutionTime = 1.99 s  ClockTime = 2 s

Time = 41

smoothSolver:  Solving for Ux, Initial residual = 0.012906, Final residual = 0.000222828, No Iterations 2
smoothSolver:  Solving for Uy, Initial residual = 0.012675, Final residual = 0.000219152, No Iterations 2
smoothSolver:  Solving for Uz, Initial residual = 3.16431e-05, Final residual = 7.84369e-06, No Iterations 1
GAMG:  Solving for p, Initial residual = 0.000139104, Final residual = 1.02359e-05, No Iterations 3
time step continuity errors : sum local = 6.4921e-05, global = -2.08308e-07, cumulative = 0.000536695
ExecutionTime = 2.01 s  ClockTime = 2 s

Time = 42

smoothSolver:  Solving for Ux, Initial residual = 0.0119836, Final residual = 0.00019952, No Iterations 2
smoothSolver:  Solving for Uy, Initial residual = 0.0119108, Final residual = 0.000206301, No Iterations 2
smoothSolver:  Solving for Uz, Initial residual = 3.04947e-05, Final residual = 7.29013e-06, No Iterations 1
GAMG:  Solving for p, Initial residual = 0.000127336, Final residual = 7.77337e-06, No Iterations 3
time step continuity errors : sum local = 4.9304e-05, global = -2.12972e-07, cumulative = 0.000536482
ExecutionTime = 2.03 s  ClockTime = 2 s

Time = 43

smoothSolver:  Solving for Ux, Initial residual = 0.0108316, Final residual = 0.000181154, No Iterations 2
smoothSolver:  Solving for Uy, Initial residual = 0.0107812, Final residual = 0.000184341, No Iterations 2
smoothSolver:  Solving for Uz, Initial residual = 2.72145e-05, Final residual = 6.76715e-06, No Iterations 1
GAMG:  Solving for p, Initial residual = 0.00011664, Final residual = 1.14413e-05, No Iterations 2
time step continuity errors : sum local = 7.25716e-05, global = -1.76256e-08, cumulative = 0.000536464
ExecutionTime = 2.06 s  ClockTime = 2 s

Time = 44

smoothSolver:  Solving for Ux, Initial residual = 0.0100236, Final residual = 0.000169392, No Iterations 2
smoothSolver:  Solving for Uy, Initial residual = 0.00985692, Final residual = 0.000166557, No Iterations 2
smoothSolver:  Solving for Uz, Initial residual = 2.43745e-05, Final residual = 5.83734e-06, No Iterations 1
GAMG:  Solving for p, Initial residual = 0.000106901, Final residual = 1.03398e-05, No Iterations 2
time step continuity errors : sum local = 6.5585e-05, global = 1.44654e-08, cumulative = 0.000536479
ExecutionTime = 2.08 s  ClockTime = 2 s

Time = 45

smoothSolver:  Solving for Ux, Initial residual = 0.00920252, Final residual = 0.000152675, No Iterations 2
smoothSolver:  Solving for Uy, Initial residual = 0.00904062, Final residual = 0.000152077, No Iterations 2
smoothSolver:  Solving for Uz, Initial residual = 2.16931e-05, Final residual = 5.16226e-06, No Iterations 1
GAMG:  Solving for p, Initial residual = 9.79653e-05, Final residual = 9.58419e-06, No Iterations 2
time step continuity errors : sum local = 6.0793e-05, global = -7.77298e-09, cumulative = 0.000536471
ExecutionTime = 2.1 s  ClockTime = 2 s

Time = 46

smoothSolver:  Solving for Ux, Initial residual = 0.00840992, Final residual = 0.000136392, No Iterations 2
smoothSolver:  Solving for Uy, Initial residual = 0.00827274, Final residual = 0.000138611, No Iterations 2
smoothSolver:  Solving for Uz, Initial residual = 1.95683e-05, Final residual = 4.75307e-06, No Iterations 1
GAMG:  Solving for p, Initial residual = 8.99311e-05, Final residual = 8.3523e-06, No Iterations 2
time step continuity errors : sum local = 5.29796e-05, global = 2.79763e-07, cumulative = 0.000536751
ExecutionTime = 2.13 s  ClockTime = 2 s

Time = 47

smoothSolver:  Solving for Ux, Initial residual = 0.00769252, Final residual = 0.000123829, No Iterations 2
smoothSolver:  Solving for Uy, Initial residual = 0.00758648, Final residual = 0.000125463, No Iterations 2
smoothSolver:  Solving for Uz, Initial residual = 1.75504e-05, Final residual = 4.22006e-06, No Iterations 1
GAMG:  Solving for p, Initial residual = 8.25106e-05, Final residual = 7.56041e-06, No Iterations 2
time step continuity errors : sum local = 4.79565e-05, global = 3.04931e-07, cumulative = 0.000537056
ExecutionTime = 2.15 s  ClockTime = 2 s

Time = 48

smoothSolver:  Solving for Ux, Initial residual = 0.00706274, Final residual = 0.000111951, No Iterations 2
smoothSolver:  Solving for Uy, Initial residual = 0.00696545, Final residual = 0.000114341, No Iterations 2
smoothSolver:  Solving for Uz, Initial residual = 1.58903e-05, Final residual = 3.85432e-06, No Iterations 1
GAMG:  Solving for p, Initial residual = 7.56834e-05, Final residual = 6.72193e-06, No Iterations 2
time step continuity errors : sum local = 4.26381e-05, global = 5.70555e-07, cumulative = 0.000537626
ExecutionTime = 2.17 s  ClockTime = 2 s

Time = 49

smoothSolver:  Solving for Ux, Initial residual = 0.00646454, Final residual = 0.000101962, No Iterations 2
smoothSolver:  Solving for Uy, Initial residual = 0.00639756, Final residual = 0.000104014, No Iterations 2
smoothSolver:  Solving for Uz, Initial residual = 1.42817e-05, Final residual = 3.48328e-06, No Iterations 1
GAMG:  Solving for p, Initial residual = 6.94655e-05, Final residual = 6.35861e-06, No Iterations 2
time step continuity errors : sum local = 4.03334e-05, global = 6.22075e-07, cumulative = 0.000538248
ExecutionTime = 2.19 s  ClockTime = 2 s

Time = 50

smoothSolver:  Solving for Ux, Initial residual = 0.00593225, Final residual = 9.27386e-05, No Iterations 2
smoothSolver:  Solving for Uy, Initial residual = 0.00587792, Final residual = 9.52544e-05, No Iterations 2
smoothSolver:  Solving for Uz, Initial residual = 1.30846e-05, Final residual = 3.20374e-06, No Iterations 1
GAMG:  Solving for p, Initial residual = 6.36432e-05, Final residual = 5.88016e-06, No Iterations 2
time step continuity errors : sum local = 3.72985e-05, global = 7.20672e-07, cumulative = 0.000538969
ExecutionTime = 2.22 s  ClockTime = 2 s

Time = 51

smoothSolver:  Solving for Ux, Initial residual = 0.00540831, Final residual = 8.34143e-05, No Iterations 2
smoothSolver:  Solving for Uy, Initial residual = 0.00536652, Final residual = 8.58673e-05, No Iterations 2
smoothSolver:  Solving for Uz, Initial residual = 1.18055e-05, Final residual = 2.92906e-06, No Iterations 1
GAMG:  Solving for p, Initial residual = 5.84586e-05, Final residual = 5.59548e-06, No Iterations 2
time step continuity errors : sum local = 3.54926e-05, global = 8.44135e-07, cumulative = 0.000539813
ExecutionTime = 2.24 s  ClockTime = 2 s

Time = 52

smoothSolver:  Solving for Ux, Initial residual = 0.00495667, Final residual = 7.57527e-05, No Iterations 2
smoothSolver:  Solving for Uy, Initial residual = 0.00492779, Final residual = 7.83417e-05, No Iterations 2
smoothSolver:  Solving for Uz, Initial residual = 1.07677e-05, Final residual = 2.67239e-06, No Iterations 1
GAMG:  Solving for p, Initial residual = 5.3665e-05, Final residual = 5.22514e-06, No Iterations 2
time step continuity errors : sum local = 3.31434e-05, global = 8.16594e-07, cumulative = 0.00054063
ExecutionTime = 2.26 s  ClockTime = 2 s

Time = 53

smoothSolver:  Solving for Ux, Initial residual = 0.00451702, Final residual = 6.83235e-05, No Iterations 2
smoothSolver:  Solving for Uy, Initial residual = 0.00448344, Final residual = 7.02124e-05, No Iterations 2
smoothSolver:  Solving for Uz, Initial residual = 9.59966e-06, Final residual = 9.59966e-06, No Iterations 0
GAMG:  Solving for p, Initial residual = 4.84455e-05, Final residual = 4.62826e-06, No Iterations 2
time step continuity errors : sum local = 2.93572e-05, global = 5.54492e-07, cumulative = 0.000541184
ExecutionTime = 2.28 s  ClockTime = 2 s

Time = 54

smoothSolver:  Solving for Ux, Initial residual = 0.00404377, Final residual = 0.000402571, No Iterations 1
smoothSolver:  Solving for Uy, Initial residual = 0.00401436, Final residual = 6.08502e-05, No Iterations 2
smoothSolver:  Solving for Uz, Initial residual = 1.03107e-05, Final residual = 2.53494e-06, No Iterations 1
GAMG:  Solving for p, Initial residual = 4.59378e-05, Final residual = 3.19558e-06, No Iterations 3
time step continuity errors : sum local = 2.02692e-05, global = 1.54359e-06, cumulative = 0.000542728
ExecutionTime = 2.3 s  ClockTime = 2 s

Time = 55

smoothSolver:  Solving for Ux, Initial residual = 0.00375714, Final residual = 5.776e-05, No Iterations 2
smoothSolver:  Solving for Uy, Initial residual = 0.00385035, Final residual = 6.19076e-05, No Iterations 2
smoothSolver:  Solving for Uz, Initial residual = 8.48971e-06, Final residual = 8.48971e-06, No Iterations 0
GAMG:  Solving for p, Initial residual = 4.07137e-05, Final residual = 2.55709e-06, No Iterations 3
time step continuity errors : sum local = 1.62191e-05, global = 7.06788e-07, cumulative = 0.000543435
ExecutionTime = 2.33 s  ClockTime = 2 s

Time = 56

smoothSolver:  Solving for Ux, Initial residual = 0.00342148, Final residual = 0.000339347, No Iterations 1
smoothSolver:  Solving for Uy, Initial residual = 0.00350262, Final residual = 5.4196e-05, No Iterations 2
smoothSolver:  Solving for Uz, Initial residual = 8.82654e-06, Final residual = 8.82654e-06, No Iterations 0
GAMG:  Solving for p, Initial residual = 3.76856e-05, Final residual = 3.56134e-06, No Iterations 2
time step continuity errors : sum local = 2.25888e-05, global = 6.51434e-07, cumulative = 0.000544086
ExecutionTime = 2.34 s  ClockTime = 2 s

Time = 57

smoothSolver:  Solving for Ux, Initial residual = 0.00306428, Final residual = 0.000299418, No Iterations 1
smoothSolver:  Solving for Uy, Initial residual = 0.00309961, Final residual = 4.53425e-05, No Iterations 2
smoothSolver:  Solving for Uz, Initial residual = 8.46282e-06, Final residual = 8.46282e-06, No Iterations 0
GAMG:  Solving for p, Initial residual = 3.48046e-05, Final residual = 3.31435e-06, No Iterations 2
time step continuity errors : sum local = 2.1022e-05, global = 7.65028e-07, cumulative = 0.000544851
ExecutionTime = 2.38 s  ClockTime = 2 s

Time = 58

smoothSolver:  Solving for Ux, Initial residual = 0.00278061, Final residual = 0.000268229, No Iterations 1
smoothSolver:  Solving for Uy, Initial residual = 0.00283798, Final residual = 4.09766e-05, No Iterations 2
smoothSolver:  Solving for Uz, Initial residual = 7.91176e-06, Final residual = 7.91176e-06, No Iterations 0
GAMG:  Solving for p, Initial residual = 3.19644e-05, Final residual = 3.13658e-06, No Iterations 2
time step continuity errors : sum local = 1.98943e-05, global = 5.95346e-07, cumulative = 0.000545446
ExecutionTime = 2.4 s  ClockTime = 2 s

Time = 59

smoothSolver:  Solving for Ux, Initial residual = 0.00256686, Final residual = 0.00024664, No Iterations 1
smoothSolver:  Solving for Uy, Initial residual = 0.00264001, Final residual = 3.78198e-05, No Iterations 2
smoothSolver:  Solving for Uz, Initial residual = 7.20822e-06, Final residual = 7.20822e-06, No Iterations 0
GAMG:  Solving for p, Initial residual = 2.92593e-05, Final residual = 2.11106e-06, No Iterations 3
time step continuity errors : sum local = 1.33897e-05, global = 5.0435e-07, cumulative = 0.000545951
ExecutionTime = 2.42 s  ClockTime = 2 s

Time = 60

smoothSolver:  Solving for Ux, Initial residual = 0.00239728, Final residual = 0.00023379, No Iterations 1
smoothSolver:  Solving for Uy, Initial residual = 0.00252852, Final residual = 3.82816e-05, No Iterations 2
smoothSolver:  Solving for Uz, Initial residual = 6.95756e-06, Final residual = 6.95756e-06, No Iterations 0
GAMG:  Solving for p, Initial residual = 2.66795e-05, Final residual = 2.17064e-06, No Iterations 3
time step continuity errors : sum local = 1.37674e-05, global = -3.26086e-07, cumulative = 0.000545625
ExecutionTime = 2.44 s  ClockTime = 2 s

Time = 61

smoothSolver:  Solving for Ux, Initial residual = 0.00220041, Final residual = 0.000216298, No Iterations 1
smoothSolver:  Solving for Uy, Initial residual = 0.0023398, Final residual = 3.71735e-05, No Iterations 2
smoothSolver:  Solving for Uz, Initial residual = 7.18001e-06, Final residual = 7.18001e-06, No Iterations 0
GAMG:  Solving for p, Initial residual = 2.44195e-05, Final residual = 1.41915e-06, No Iterations 3
time step continuity errors : sum local = 9.00088e-06, global = 7.86351e-08, cumulative = 0.000545703
ExecutionTime = 2.47 s  ClockTime = 2 s

Time = 62

smoothSolver:  Solving for Ux, Initial residual = 0.00197986, Final residual = 0.000194433, No Iterations 1
smoothSolver:  Solving for Uy, Initial residual = 0.00209715, Final residual = 3.17363e-05, No Iterations 2
smoothSolver:  Solving for Uz, Initial residual = 6.74319e-06, Final residual = 6.74319e-06, No Iterations 0
GAMG:  Solving for p, Initial residual = 2.24854e-05, Final residual = 2.08788e-06, No Iterations 2
time step continuity errors : sum local = 1.32421e-05, global = 6.90551e-07, cumulative = 0.000546394
ExecutionTime = 2.5 s  ClockTime = 2 s

Time = 63

smoothSolver:  Solving for Ux, Initial residual = 0.00179749, Final residual = 0.000171932, No Iterations 1
smoothSolver:  Solving for Uy, Initial residual = 0.00186925, Final residual = 0.000186815, No Iterations 1
smoothSolver:  Solving for Uz, Initial residual = 6.00003e-06, Final residual = 6.00003e-06, No Iterations 0
GAMG:  Solving for p, Initial residual = 2.04589e-05, Final residual = 1.8277e-06, No Iterations 2
time step continuity errors : sum local = 1.15918e-05, global = 2.96235e-07, cumulative = 0.00054669
ExecutionTime = 2.53 s  ClockTime = 2 s

Time = 64

smoothSolver:  Solving for Ux, Initial residual = 0.0016186, Final residual = 0.000149212, No Iterations 1
smoothSolver:  Solving for Uy, Initial residual = 0.00165849, Final residual = 0.000162094, No Iterations 1
smoothSolver:  Solving for Uz, Initial residual = 5.75641e-06, Final residual = 5.75641e-06, No Iterations 0
GAMG:  Solving for p, Initial residual = 1.86085e-05, Final residual = 1.78128e-06, No Iterations 2
time step continuity errors : sum local = 1.12974e-05, global = 1.09319e-07, cumulative = 0.000546799
ExecutionTime = 2.55 s  ClockTime = 2 s

Time = 65

smoothSolver:  Solving for Ux, Initial residual = 0.00148067, Final residual = 0.000133804, No Iterations 1
smoothSolver:  Solving for Uy, Initial residual = 0.00150563, Final residual = 0.000143249, No Iterations 1
smoothSolver:  Solving for Uz, Initial residual = 5.58759e-06, Final residual = 5.58759e-06, No Iterations 0
GAMG:  Solving for p, Initial residual = 1.71107e-05, Final residual = 1.62706e-06, No Iterations 2
time step continuity errors : sum local = 1.03193e-05, global = 3.62202e-07, cumulative = 0.000547162
ExecutionTime = 2.57 s  ClockTime = 2 s

Time = 66

smoothSolver:  Solving for Ux, Initial residual = 0.00135055, Final residual = 0.000121127, No Iterations 1
smoothSolver:  Solving for Uy, Initial residual = 0.00137519, Final residual = 0.000127737, No Iterations 1
smoothSolver:  Solving for Uz, Initial residual = 5.14322e-06, Final residual = 5.14322e-06, No Iterations 0
GAMG:  Solving for p, Initial residual = 1.56044e-05, Final residual = 1.52091e-06, No Iterations 2
time step continuity errors : sum local = 9.64605e-06, global = 2.77712e-07, cumulative = 0.000547439
ExecutionTime = 2.59 s  ClockTime = 2 s

Time = 67

smoothSolver:  Solving for Ux, Initial residual = 0.00124254, Final residual = 0.00011125, No Iterations 1
smoothSolver:  Solving for Uy, Initial residual = 0.00126571, Final residual = 0.000116978, No Iterations 1
smoothSolver:  Solving for Uz, Initial residual = 5.00017e-06, Final residual = 5.00017e-06, No Iterations 0
GAMG:  Solving for p, Initial residual = 1.42834e-05, Final residual = 9.97177e-07, No Iterations 3
time step continuity errors : sum local = 6.32437e-06, global = 1.40949e-07, cumulative = 0.00054758
ExecutionTime = 2.62 s  ClockTime = 2 s

Time = 68

smoothSolver:  Solving for Ux, Initial residual = 0.00115991, Final residual = 0.000105806, No Iterations 1
smoothSolver:  Solving for Uy, Initial residual = 0.00119927, Final residual = 0.000113719, No Iterations 1
smoothSolver:  Solving for Uz, Initial residual = 5.07787e-06, Final residual = 5.07787e-06, No Iterations 0
GAMG:  Solving for p, Initial residual = 1.30533e-05, Final residual = 9.15075e-07, No Iterations 3
time step continuity errors : sum local = 5.80364e-06, global = 1.55353e-07, cumulative = 0.000547736
ExecutionTime = 2.65 s  ClockTime = 2 s

Time = 69

smoothSolver:  Solving for Ux, Initial residual = 0.00106741, Final residual = 9.76868e-05, No Iterations 1
smoothSolver:  Solving for Uy, Initial residual = 0.00110321, Final residual = 0.000104042, No Iterations 1
smoothSolver:  Solving for Uz, Initial residual = 4.85475e-06, Final residual = 4.85475e-06, No Iterations 0
GAMG:  Solving for p, Initial residual = 1.19853e-05, Final residual = 8.14067e-07, No Iterations 3
time step continuity errors : sum local = 5.163e-06, global = 9.5611e-08, cumulative = 0.000547831
ExecutionTime = 2.68 s  ClockTime = 2 s

Time = 70

smoothSolver:  Solving for Ux, Initial residual = 0.000985756, Final residual = 9.07949e-05, No Iterations 1
smoothSolver:  Solving for Uy, Initial residual = 0.00102249, Final residual = 9.74256e-05, No Iterations 1
smoothSolver:  Solving for Uz, Initial residual = 4.69141e-06, Final residual = 4.69141e-06, No Iterations 0
GAMG:  Solving for p, Initial residual = 1.09594e-05, Final residual = 7.2241e-07, No Iterations 3
time step continuity errors : sum local = 4.58168e-06, global = 1.89387e-07, cumulative = 0.000548021
ExecutionTime = 2.7 s  ClockTime = 2 s

Time = 71

smoothSolver:  Solving for Ux, Initial residual = 0.00091684, Final residual = 8.52421e-05, No Iterations 1
smoothSolver:  Solving for Uy, Initial residual = 0.000954883, Final residual = 9.22325e-05, No Iterations 1
smoothSolver:  Solving for Uz, Initial residual = 4.56344e-06, Final residual = 4.56344e-06, No Iterations 0
GAMG:  Solving for p, Initial residual = 1.00231e-05, Final residual = 6.7832e-07, No Iterations 3
time step continuity errors : sum local = 4.30204e-06, global = 1.70745e-07, cumulative = 0.000548191
ExecutionTime = 2.72 s  ClockTime = 2 s

Time = 72

smoothSolver:  Solving for Ux, Initial residual = 0.000852398, Final residual = 7.92486e-05, No Iterations 1
smoothSolver:  Solving for Uy, Initial residual = 0.000886032, Final residual = 8.53975e-05, No Iterations 1
smoothSolver:  Solving for Uz, Initial residual = 4.37357e-06, Final residual = 4.37357e-06, No Iterations 0
GAMG:  Solving for p, Initial residual = 9.14025e-06, Final residual = 5.96192e-07, No Iterations 3
time step continuity errors : sum local = 3.78116e-06, global = 1.62603e-07, cumulative = 0.000548354
ExecutionTime = 2.74 s  ClockTime = 2 s

Time = 73

smoothSolver:  Solving for Ux, Initial residual = 0.000796279, Final residual = 7.41974e-05, No Iterations 1
smoothSolver:  Solving for Uy, Initial residual = 0.000830312, Final residual = 8.04533e-05, No Iterations 1
smoothSolver:  Solving for Uz, Initial residual = 4.28214e-06, Final residual = 4.28214e-06, No Iterations 0
GAMG:  Solving for p, Initial residual = 8.37417e-06, Final residual = 8.96222e-07, No Iterations 2
time step continuity errors : sum local = 5.68399e-06, global = 2.11071e-08, cumulative = 0.000548375
ExecutionTime = 2.77 s  ClockTime = 2 s

Time = 74

smoothSolver:  Solving for Ux, Initial residual = 0.000746847, Final residual = 6.88486e-05, No Iterations 1
smoothSolver:  Solving for Uy, Initial residual = 0.000765558, Final residual = 7.23031e-05, No Iterations 1
smoothSolver:  Solving for Uz, Initial residual = 4.14569e-06, Final residual = 4.14569e-06, No Iterations 0
GAMG:  Solving for p, Initial residual = 7.68932e-06, Final residual = 8.66807e-07, No Iterations 2
time step continuity errors : sum local = 5.49745e-06, global = 1.67455e-07, cumulative = 0.000548542
ExecutionTime = 2.79 s  ClockTime = 2 s

Time = 75

smoothSolver:  Solving for Ux, Initial residual = 0.000691015, Final residual = 6.34715e-05, No Iterations 1
smoothSolver:  Solving for Uy, Initial residual = 0.000706342, Final residual = 6.71862e-05, No Iterations 1
smoothSolver:  Solving for Uz, Initial residual = 4.08693e-06, Final residual = 4.08693e-06, No Iterations 0
GAMG:  Solving for p, Initial residual = 7.11006e-06, Final residual = 7.09505e-07, No Iterations 2
time step continuity errors : sum local = 4.49979e-06, global = 1.33229e-07, cumulative = 0.000548676
ExecutionTime = 2.81 s  ClockTime = 2 s

Time = 76

smoothSolver:  Solving for Ux, Initial residual = 0.000633829, Final residual = 5.75085e-05, No Iterations 1
smoothSolver:  Solving for Uy, Initial residual = 0.00064379, Final residual = 5.90402e-05, No Iterations 1
smoothSolver:  Solving for Uz, Initial residual = 4.02317e-06, Final residual = 4.02317e-06, No Iterations 0
GAMG:  Solving for p, Initial residual = 6.50387e-06, Final residual = 8.58086e-07, No Iterations 2
time step continuity errors : sum local = 5.44212e-06, global = 1.57423e-07, cumulative = 0.000548833
ExecutionTime = 2.83 s  ClockTime = 2 s

Time = 77

smoothSolver:  Solving for Ux, Initial residual = 0.00061965, Final residual = 5.85435e-05, No Iterations 1
smoothSolver:  Solving for Uy, Initial residual = 0.000628794, Final residual = 5.95852e-05, No Iterations 1
smoothSolver:  Solving for Uz, Initial residual = 3.9453e-06, Final residual = 3.9453e-06, No Iterations 0
GAMG:  Solving for p, Initial residual = 6.05135e-06, Final residual = 6.25484e-07, No Iterations 2
time step continuity errors : sum local = 3.96691e-06, global = 3.17709e-08, cumulative = 0.000548865
ExecutionTime = 2.86 s  ClockTime = 2 s

Time = 78

smoothSolver:  Solving for Ux, Initial residual = 0.000577442, Final residual = 5.48072e-05, No Iterations 1
smoothSolver:  Solving for Uy, Initial residual = 0.000585483, Final residual = 5.49729e-05, No Iterations 1
smoothSolver:  Solving for Uz, Initial residual = 3.83899e-06, Final residual = 3.83899e-06, No Iterations 0
GAMG:  Solving for p, Initial residual = 5.64006e-06, Final residual = 6.70488e-07, No Iterations 2
time step continuity errors : sum local = 4.25235e-06, global = 7.64503e-08, cumulative = 0.000548941
ExecutionTime = 2.88 s  ClockTime = 2 s

Time = 79

smoothSolver:  Solving for Ux, Initial residual = 0.000562501, Final residual = 5.5077e-05, No Iterations 1
smoothSolver:  Solving for Uy, Initial residual = 0.000572071, Final residual = 5.65539e-05, No Iterations 1
smoothSolver:  Solving for Uz, Initial residual = 3.79316e-06, Final residual = 3.79316e-06, No Iterations 0
GAMG:  Solving for p, Initial residual = 5.33928e-06, Final residual = 9.96544e-07, No Iterations 1
time step continuity errors : sum local = 6.32023e-06, global = 2.50535e-07, cumulative = 0.000549192
ExecutionTime = 2.9 s  ClockTime = 2 s

Time = 80

smoothSolver:  Solving for Ux, Initial residual = 0.000488297, Final residual = 4.73475e-05, No Iterations 1
smoothSolver:  Solving for Uy, Initial residual = 0.00047757, Final residual = 4.59868e-05, No Iterations 1
smoothSolver:  Solving for Uz, Initial residual = 3.75198e-06, Final residual = 3.75198e-06, No Iterations 0
GAMG:  Solving for p, Initial residual = 5.09375e-06, Final residual = 6.33984e-07, No Iterations 2
time step continuity errors : sum local = 4.02081e-06, global = -2.16791e-08, cumulative = 0.00054917
ExecutionTime = 2.92 s  ClockTime = 2 s

Time = 81

smoothSolver:  Solving for Ux, Initial residual = 0.000508175, Final residual = 7.64896e-06, No Iterations 2
smoothSolver:  Solving for Uy, Initial residual = 0.000520538, Final residual = 7.79002e-06, No Iterations 2
smoothSolver:  Solving for Uz, Initial residual = 3.77142e-06, Final residual = 3.77142e-06, No Iterations 0
GAMG:  Solving for p, Initial residual = 4.74313e-06, Final residual = 6.42853e-07, No Iterations 2
time step continuity errors : sum local = 4.07708e-06, global = -1.48569e-07, cumulative = 0.000549022
ExecutionTime = 2.95 s  ClockTime = 3 s

Time = 82

smoothSolver:  Solving for Ux, Initial residual = 0.000488674, Final residual = 7.17235e-06, No Iterations 2
smoothSolver:  Solving for Uy, Initial residual = 0.000500637, Final residual = 7.49433e-06, No Iterations 2
smoothSolver:  Solving for Uz, Initial residual = 3.80371e-06, Final residual = 3.80371e-06, No Iterations 0
GAMG:  Solving for p, Initial residual = 4.57909e-06, Final residual = 6.61636e-07, No Iterations 2
time step continuity errors : sum local = 4.19622e-06, global = 8.21533e-09, cumulative = 0.00054903
ExecutionTime = 2.97 s  ClockTime = 3 s

Time = 83

smoothSolver:  Solving for Ux, Initial residual = 0.000470786, Final residual = 6.93336e-06, No Iterations 2
smoothSolver:  Solving for Uy, Initial residual = 0.000480827, Final residual = 7.2169e-06, No Iterations 2
smoothSolver:  Solving for Uz, Initial residual = 3.70719e-06, Final residual = 3.70719e-06, No Iterations 0
GAMG:  Solving for p, Initial residual = 4.28886e-06, Final residual = 6.61642e-07, No Iterations 2
time step continuity errors : sum local = 4.19625e-06, global = -1.41953e-08, cumulative = 0.000549016
ExecutionTime = 2.99 s  ClockTime = 3 s

Time = 84

smoothSolver:  Solving for Ux, Initial residual = 0.000462594, Final residual = 6.75959e-06, No Iterations 2
smoothSolver:  Solving for Uy, Initial residual = 0.000473794, Final residual = 7.12765e-06, No Iterations 2
smoothSolver:  Solving for Uz, Initial residual = 3.72785e-06, Final residual = 3.72785e-06, No Iterations 0
GAMG:  Solving for p, Initial residual = 4.06343e-06, Final residual = 9.95793e-07, No Iterations 1
time step continuity errors : sum local = 6.31551e-06, global = -1.73159e-07, cumulative = 0.000548842
ExecutionTime = 3.01 s  ClockTime = 3 s

Time = 85

smoothSolver:  Solving for Ux, Initial residual = 0.000433953, Final residual = 6.16994e-06, No Iterations 2
smoothSolver:  Solving for Uy, Initial residual = 0.000420625, Final residual = 6.00898e-06, No Iterations 2
smoothSolver:  Solving for Uz, Initial residual = 3.85756e-06, Final residual = 3.85756e-06, No Iterations 0
GAMG:  Solving for p, Initial residual = 4.00406e-06, Final residual = 9.94241e-07, No Iterations 1
time step continuity errors : sum local = 6.30568e-06, global = -1.9163e-07, cumulative = 0.000548651
ExecutionTime = 3.03 s  ClockTime = 3 s

Time = 86

smoothSolver:  Solving for Ux, Initial residual = 0.000445692, Final residual = 6.55526e-06, No Iterations 2
smoothSolver:  Solving for Uy, Initial residual = 0.000425448, Final residual = 6.19122e-06, No Iterations 2
smoothSolver:  Solving for Uz, Initial residual = 3.88834e-06, Final residual = 3.88834e-06, No Iterations 0
GAMG:  Solving for p, Initial residual = 3.95925e-06, Final residual = 9.82417e-07, No Iterations 1
time step continuity errors : sum local = 6.23069e-06, global = 8.87785e-09, cumulative = 0.00054866
ExecutionTime = 3.05 s  ClockTime = 3 s

Time = 87

smoothSolver:  Solving for Ux, Initial residual = 0.00048194, Final residual = 7.5889e-06, No Iterations 2
smoothSolver:  Solving for Uy, Initial residual = 0.000457095, Final residual = 6.98498e-06, No Iterations 2
smoothSolver:  Solving for Uz, Initial residual = 3.91375e-06, Final residual = 3.91375e-06, No Iterations 0
GAMG:  Solving for p, Initial residual = 3.81296e-06, Final residual = 7.01925e-07, No Iterations 2
time step continuity errors : sum local = 4.45175e-06, global = 2.57483e-08, cumulative = 0.000548685
ExecutionTime = 3.08 s  ClockTime = 3 s

Time = 88

smoothSolver:  Solving for Ux, Initial residual = 0.000461986, Final residual = 7.28049e-06, No Iterations 2
smoothSolver:  Solving for Uy, Initial residual = 0.000485846, Final residual = 7.87593e-06, No Iterations 2
smoothSolver:  Solving for Uz, Initial residual = 4.01954e-06, Final residual = 4.01954e-06, No Iterations 0
GAMG:  Solving for p, Initial residual = 3.66499e-06, Final residual = 6.88689e-07, No Iterations 2
time step continuity errors : sum local = 4.3678e-06, global = -6.76739e-08, cumulative = 0.000548618
ExecutionTime = 3.1 s  ClockTime = 3 s

Time = 89

smoothSolver:  Solving for Ux, Initial residual = 0.000464516, Final residual = 7.4547e-06, No Iterations 2
smoothSolver:  Solving for Uy, Initial residual = 0.000482902, Final residual = 7.93734e-06, No Iterations 2
smoothSolver:  Solving for Uz, Initial residual = 4.09741e-06, Final residual = 4.09741e-06, No Iterations 0
GAMG:  Solving for p, Initial residual = 3.65567e-06, Final residual = 6.88566e-07, No Iterations 2
time step continuity errors : sum local = 4.36703e-06, global = -8.93534e-08, cumulative = 0.000548528
ExecutionTime = 3.12 s  ClockTime = 3 s

Time = 90

smoothSolver:  Solving for Ux, Initial residual = 0.000474068, Final residual = 7.74423e-06, No Iterations 2
smoothSolver:  Solving for Uy, Initial residual = 0.000489194, Final residual = 8.09485e-06, No Iterations 2
smoothSolver:  Solving for Uz, Initial residual = 4.18255e-06, Final residual = 4.18255e-06, No Iterations 0
GAMG:  Solving for p, Initial residual = 3.6183e-06, Final residual = 7.01538e-07, No Iterations 2
time step continuity errors : sum local = 4.44931e-06, global = -4.06081e-08, cumulative = 0.000548488
ExecutionTime = 3.14 s  ClockTime = 3 s

Time = 91

smoothSolver:  Solving for Ux, Initial residual = 0.000490796, Final residual = 8.07177e-06, No Iterations 2
smoothSolver:  Solving for Uy, Initial residual = 0.000508752, Final residual = 8.40776e-06, No Iterations 2
smoothSolver:  Solving for Uz, Initial residual = 4.26315e-06, Final residual = 4.26315e-06, No Iterations 0
GAMG:  Solving for p, Initial residual = 3.59731e-06, Final residual = 7.15469e-07, No Iterations 2
time step continuity errors : sum local = 4.53766e-06, global = -3.82205e-08, cumulative = 0.00054845
ExecutionTime = 3.16 s  ClockTime = 3 s

Time = 92

smoothSolver:  Solving for Ux, Initial residual = 0.000508527, Final residual = 8.36918e-06, No Iterations 2
smoothSolver:  Solving for Uy, Initial residual = 0.000531434, Final residual = 8.84295e-06, No Iterations 2
smoothSolver:  Solving for Uz, Initial residual = 4.37105e-06, Final residual = 4.37105e-06, No Iterations 0
GAMG:  Solving for p, Initial residual = 3.59128e-06, Final residual = 7.23546e-07, No Iterations 2
time step continuity errors : sum local = 4.5889e-06, global = -7.11053e-08, cumulative = 0.000548379
ExecutionTime = 3.19 s  ClockTime = 3 s

Time = 93

smoothSolver:  Solving for Ux, Initial residual = 0.000524512, Final residual = 8.74861e-06, No Iterations 2
smoothSolver:  Solving for Uy, Initial residual = 0.000552028, Final residual = 9.28369e-06, No Iterations 2
smoothSolver:  Solving for Uz, Initial residual = 4.51698e-06, Final residual = 4.51698e-06, No Iterations 0
GAMG:  Solving for p, Initial residual = 3.60101e-06, Final residual = 7.42979e-07, No Iterations 2
time step continuity errors : sum local = 4.71215e-06, global = -7.12826e-08, cumulative = 0.000548307
ExecutionTime = 3.21 s  ClockTime = 3 s

Time = 94

smoothSolver:  Solving for Ux, Initial residual = 0.000541339, Final residual = 9.1654e-06, No Iterations 2
smoothSolver:  Solving for Uy, Initial residual = 0.000570587, Final residual = 9.77521e-06, No Iterations 2
smoothSolver:  Solving for Uz, Initial residual = 4.6827e-06, Final residual = 4.6827e-06, No Iterations 0
GAMG:  Solving for p, Initial residual = 3.66237e-06, Final residual = 7.67939e-07, No Iterations 2
time step continuity errors : sum local = 4.87046e-06, global = -5.05431e-08, cumulative = 0.000548257
ExecutionTime = 3.23 s  ClockTime = 3 s

Time = 95

smoothSolver:  Solving for Ux, Initial residual = 0.00056517, Final residual = 9.65031e-06, No Iterations 2
smoothSolver:  Solving for Uy, Initial residual = 0.000593013, Final residual = 1.02832e-05, No Iterations 2
smoothSolver:  Solving for Uz, Initial residual = 4.8712e-06, Final residual = 4.8712e-06, No Iterations 0
GAMG:  Solving for p, Initial residual = 3.69905e-06, Final residual = 7.81964e-07, No Iterations 2
time step continuity errors : sum local = 4.95942e-06, global = -4.91066e-08, cumulative = 0.000548208
ExecutionTime = 3.25 s  ClockTime = 3 s

Time = 96

smoothSolver:  Solving for Ux, Initial residual = 0.000594972, Final residual = 1.02072e-05, No Iterations 2
smoothSolver:  Solving for Uy, Initial residual = 0.000621722, Final residual = 1.08133e-05, No Iterations 2
smoothSolver:  Solving for Uz, Initial residual = 5.09461e-06, Final residual = 5.09461e-06, No Iterations 0
GAMG:  Solving for p, Initial residual = 3.77035e-06, Final residual = 7.90684e-07, No Iterations 2
time step continuity errors : sum local = 5.01473e-06, global = -5.8611e-08, cumulative = 0.000548149
ExecutionTime = 3.27 s  ClockTime = 3 s

Time = 97

smoothSolver:  Solving for Ux, Initial residual = 0.000625117, Final residual = 1.07977e-05, No Iterations 2
smoothSolver:  Solving for Uy, Initial residual = 0.000653031, Final residual = 1.14252e-05, No Iterations 2
smoothSolver:  Solving for Uz, Initial residual = 5.31917e-06, Final residual = 5.31917e-06, No Iterations 0
GAMG:  Solving for p, Initial residual = 3.87507e-06, Final residual = 8.17587e-07, No Iterations 2
time step continuity errors : sum local = 5.18536e-06, global = -5.61191e-08, cumulative = 0.000548093
ExecutionTime = 3.29 s  ClockTime = 3 s

Time = 98

smoothSolver:  Solving for Ux, Initial residual = 0.000662765, Final residual = 1.14429e-05, No Iterations 2
smoothSolver:  Solving for Uy, Initial residual = 0.000692323, Final residual = 1.2097e-05, No Iterations 2
smoothSolver:  Solving for Uz, Initial residual = 5.59345e-06, Final residual = 5.59345e-06, No Iterations 0
GAMG:  Solving for p, Initial residual = 3.99889e-06, Final residual = 8.40514e-07, No Iterations 2
time step continuity errors : sum local = 5.33078e-06, global = -4.7588e-08, cumulative = 0.000548045
ExecutionTime = 3.31 s  ClockTime = 3 s

Time = 99

smoothSolver:  Solving for Ux, Initial residual = 0.000702832, Final residual = 1.20761e-05, No Iterations 2
smoothSolver:  Solving for Uy, Initial residual = 0.000735169, Final residual = 1.27819e-05, No Iterations 2
smoothSolver:  Solving for Uz, Initial residual = 5.8838e-06, Final residual = 5.8838e-06, No Iterations 0
GAMG:  Solving for p, Initial residual = 4.1399e-06, Final residual = 8.52573e-07, No Iterations 2
time step continuity errors : sum local = 5.40726e-06, global = -4.61582e-08, cumulative = 0.000547999
ExecutionTime = 3.34 s  ClockTime = 3 s

Time = 100

smoothSolver:  Solving for Ux, Initial residual = 0.000744576, Final residual = 1.28593e-05, No Iterations 2
smoothSolver:  Solving for Uy, Initial residual = 0.000780779, Final residual = 1.36335e-05, No Iterations 2
smoothSolver:  Solving for Uz, Initial residual = 6.20368e-06, Final residual = 6.20368e-06, No Iterations 0
GAMG:  Solving for p, Initial residual = 4.29044e-06, Final residual = 8.73555e-07, No Iterations 2
time step continuity errors : sum local = 5.54035e-06, global = -4.81254e-08, cumulative = 0.000547951
ExecutionTime = 3.4 s  ClockTime = 3 s

Time = 101

smoothSolver:  Solving for Ux, Initial residual = 0.000794351, Final residual = 1.37243e-05, No Iterations 2
smoothSolver:  Solving for Uy, Initial residual = 0.000831383, Final residual = 1.45556e-05, No Iterations 2
smoothSolver:  Solving for Uz, Initial residual = 6.57249e-06, Final residual = 6.57249e-06, No Iterations 0
GAMG:  Solving for p, Initial residual = 4.46435e-06, Final residual = 8.97666e-07, No Iterations 2
time step continuity errors : sum local = 5.69327e-06, global = -4.53008e-08, cumulative = 0.000547906
ExecutionTime = 3.44 s  ClockTime = 3 s

Time = 102

smoothSolver:  Solving for Ux, Initial residual = 0.000844933, Final residual = 1.46252e-05, No Iterations 2
smoothSolver:  Solving for Uy, Initial residual = 0.000885079, Final residual = 1.556e-05, No Iterations 2
smoothSolver:  Solving for Uz, Initial residual = 6.94219e-06, Final residual = 6.94219e-06, No Iterations 0
GAMG:  Solving for p, Initial residual = 4.67734e-06, Final residual = 9.18519e-07, No Iterations 2
time step continuity errors : sum local = 5.82554e-06, global = -4.16137e-08, cumulative = 0.000547864
ExecutionTime = 3.45 s  ClockTime = 3 s

Time = 103

smoothSolver:  Solving for Ux, Initial residual = 0.00090375, Final residual = 1.5669e-05, No Iterations 2
smoothSolver:  Solving for Uy, Initial residual = 0.000947878, Final residual = 1.66394e-05, No Iterations 2
smoothSolver:  Solving for Uz, Initial residual = 7.37722e-06, Final residual = 7.37722e-06, No Iterations 0
GAMG:  Solving for p, Initial residual = 4.88336e-06, Final residual = 9.34758e-07, No Iterations 2
time step continuity errors : sum local = 5.92853e-06, global = -4.11719e-08, cumulative = 0.000547823
ExecutionTime = 3.48 s  ClockTime = 3 s

Time = 104

smoothSolver:  Solving for Ux, Initial residual = 0.000968909, Final residual = 1.6724e-05, No Iterations 2
smoothSolver:  Solving for Uy, Initial residual = 0.00101303, Final residual = 1.77319e-05, No Iterations 2
smoothSolver:  Solving for Uz, Initial residual = 7.83826e-06, Final residual = 7.83826e-06, No Iterations 0
GAMG:  Solving for p, Initial residual = 5.13506e-06, Final residual = 9.59825e-07, No Iterations 2
time step continuity errors : sum local = 6.08752e-06, global = -4.06711e-08, cumulative = 0.000547782
ExecutionTime = 3.5 s  ClockTime = 3 s

Time = 105

smoothSolver:  Solving for Ux, Initial residual = 0.00103546, Final residual = 1.79689e-05, No Iterations 2
smoothSolver:  Solving for Uy, Initial residual = 0.00108337, Final residual = 1.90823e-05, No Iterations 2
smoothSolver:  Solving for Uz, Initial residual = 8.34017e-06, Final residual = 8.34017e-06, No Iterations 0
GAMG:  Solving for p, Initial residual = 5.41705e-06, Final residual = 9.87271e-07, No Iterations 2
time step continuity errors : sum local = 6.2616e-06, global = -3.6811e-08, cumulative = 0.000547745
ExecutionTime = 3.52 s  ClockTime = 3 s

Time = 106

smoothSolver:  Solving for Ux, Initial residual = 0.00111307, Final residual = 1.91543e-05, No Iterations 2
smoothSolver:  Solving for Uy, Initial residual = 0.00116503, Final residual = 2.03767e-05, No Iterations 2
smoothSolver:  Solving for Uz, Initial residual = 8.89703e-06, Final residual = 8.89703e-06, No Iterations 0
GAMG:  Solving for p, Initial residual = 5.70459e-06, Final residual = 6.51421e-07, No Iterations 3
time step continuity errors : sum local = 4.13153e-06, global = -2.12396e-08, cumulative = 0.000547724
ExecutionTime = 3.54 s  ClockTime = 3 s

Time = 107

smoothSolver:  Solving for Ux, Initial residual = 0.00120393, Final residual = 2.06841e-05, No Iterations 2
smoothSolver:  Solving for Uy, Initial residual = 0.00128444, Final residual = 2.25741e-05, No Iterations 2
smoothSolver:  Solving for Uz, Initial residual = 9.54244e-06, Final residual = 9.54244e-06, No Iterations 0
GAMG:  Solving for p, Initial residual = 5.8654e-06, Final residual = 9.17807e-07, No Iterations 2
time step continuity errors : sum local = 5.82105e-06, global = -2.55663e-08, cumulative = 0.000547699
ExecutionTime = 3.56 s  ClockTime = 3 s

Time = 108

smoothSolver:  Solving for Ux, Initial residual = 0.00128922, Final residual = 2.23304e-05, No Iterations 2
smoothSolver:  Solving for Uy, Initial residual = 0.00135822, Final residual = 2.40695e-05, No Iterations 2
smoothSolver:  Solving for Uz, Initial residual = 1.01475e-05, Final residual = 1.46386e-06, No Iterations 1
GAMG:  Solving for p, Initial residual = 3.95258e-06, Final residual = 9.0764e-07, No Iterations 2
time step continuity errors : sum local = 5.75658e-06, global = 8.6517e-09, cumulative = 0.000547707
ExecutionTime = 3.58 s  ClockTime = 3 s

Time = 109

smoothSolver:  Solving for Ux, Initial residual = 0.000918438, Final residual = 1.74103e-05, No Iterations 2
smoothSolver:  Solving for Uy, Initial residual = 0.000981158, Final residual = 1.93136e-05, No Iterations 2
smoothSolver:  Solving for Uz, Initial residual = 6.18864e-06, Final residual = 6.18864e-06, No Iterations 0
GAMG:  Solving for p, Initial residual = 4.76641e-06, Final residual = 9.10895e-07, No Iterations 2
time step continuity errors : sum local = 5.77722e-06, global = -1.96227e-08, cumulative = 0.000547688
ExecutionTime = 3.61 s  ClockTime = 3 s

Time = 110

smoothSolver:  Solving for Ux, Initial residual = 0.00092339, Final residual = 1.72655e-05, No Iterations 2
smoothSolver:  Solving for Uy, Initial residual = 0.000972757, Final residual = 1.87565e-05, No Iterations 2
smoothSolver:  Solving for Uz, Initial residual = 6.4178e-06, Final residual = 6.4178e-06, No Iterations 0
GAMG:  Solving for p, Initial residual = 4.69626e-06, Final residual = 8.73689e-07, No Iterations 2
time step continuity errors : sum local = 5.54125e-06, global = -1.58978e-08, cumulative = 0.000547672
ExecutionTime = 3.63 s  ClockTime = 3 s

Time = 111

smoothSolver:  Solving for Ux, Initial residual = 0.000920429, Final residual = 1.78645e-05, No Iterations 2
smoothSolver:  Solving for Uy, Initial residual = 0.000962919, Final residual = 1.90297e-05, No Iterations 2
smoothSolver:  Solving for Uz, Initial residual = 6.70706e-06, Final residual = 6.70706e-06, No Iterations 0
GAMG:  Solving for p, Initial residual = 4.47982e-06, Final residual = 8.41698e-07, No Iterations 2
time step continuity errors : sum local = 5.33836e-06, global = -3.94127e-10, cumulative = 0.000547671
ExecutionTime = 3.65 s  ClockTime = 3 s

Time = 112

smoothSolver:  Solving for Ux, Initial residual = 0.000904638, Final residual = 1.77616e-05, No Iterations 2
smoothSolver:  Solving for Uy, Initial residual = 0.000945389, Final residual = 1.90832e-05, No Iterations 2
smoothSolver:  Solving for Uz, Initial residual = 7.12312e-06, Final residual = 7.12312e-06, No Iterations 0
GAMG:  Solving for p, Initial residual = 4.40004e-06, Final residual = 8.29129e-07, No Iterations 2
time step continuity errors : sum local = 5.25865e-06, global = -8.7012e-09, cumulative = 0.000547663
ExecutionTime = 3.67 s  ClockTime = 3 s

Time = 113

smoothSolver:  Solving for Ux, Initial residual = 0.000914446, Final residual = 1.80274e-05, No Iterations 2
smoothSolver:  Solving for Uy, Initial residual = 0.000954321, Final residual = 1.89081e-05, No Iterations 2
smoothSolver:  Solving for Uz, Initial residual = 7.63444e-06, Final residual = 7.63444e-06, No Iterations 0
GAMG:  Solving for p, Initial residual = 4.62344e-06, Final residual = 8.36712e-07, No Iterations 2
time step continuity errors : sum local = 5.30676e-06, global = -2.72087e-08, cumulative = 0.000547635
ExecutionTime = 3.69 s  ClockTime = 3 s

Time = 114

smoothSolver:  Solving for Ux, Initial residual = 0.000981367, Final residual = 2.10909e-05, No Iterations 2
smoothSolver:  Solving for Uy, Initial residual = 0.00102051, Final residual = 2.16474e-05, No Iterations 2
smoothSolver:  Solving for Uz, Initial residual = 8.16002e-06, Final residual = 8.16002e-06, No Iterations 0
GAMG:  Solving for p, Initial residual = 5.09078e-06, Final residual = 8.75103e-07, No Iterations 2
time step continuity errors : sum local = 5.55026e-06, global = -3.23429e-08, cumulative = 0.000547603
ExecutionTime = 3.71 s  ClockTime = 3 s

Time = 115

smoothSolver:  Solving for Ux, Initial residual = 0.00109491, Final residual = 2.54307e-05, No Iterations 2
smoothSolver:  Solving for Uy, Initial residual = 0.00113871, Final residual = 2.64065e-05, No Iterations 2
smoothSolver:  Solving for Uz, Initial residual = 8.69133e-06, Final residual = 8.69133e-06, No Iterations 0
GAMG:  Solving for p, Initial residual = 5.58272e-06, Final residual = 9.22694e-07, No Iterations 2
time step continuity errors : sum local = 5.8521e-06, global = -2.58406e-08, cumulative = 0.000547577
ExecutionTime = 3.73 s  ClockTime = 3 s

Time = 116

smoothSolver:  Solving for Ux, Initial residual = 0.00121155, Final residual = 2.75478e-05, No Iterations 2
smoothSolver:  Solving for Uy, Initial residual = 0.0012632, Final residual = 2.94946e-05, No Iterations 2
smoothSolver:  Solving for Uz, Initial residual = 9.21758e-06, Final residual = 9.21758e-06, No Iterations 0
GAMG:  Solving for p, Initial residual = 6.00809e-06, Final residual = 9.51618e-07, No Iterations 2
time step continuity errors : sum local = 6.03554e-06, global = -1.33323e-08, cumulative = 0.000547564
ExecutionTime = 3.75 s  ClockTime = 3 s

Time = 117

smoothSolver:  Solving for Ux, Initial residual = 0.00130806, Final residual = 2.9834e-05, No Iterations 2
smoothSolver:  Solving for Uy, Initial residual = 0.00136137, Final residual = 3.11715e-05, No Iterations 2
smoothSolver:  Solving for Uz, Initial residual = 9.78954e-06, Final residual = 9.78954e-06, No Iterations 0
GAMG:  Solving for p, Initial residual = 6.32533e-06, Final residual = 9.77724e-07, No Iterations 2
time step continuity errors : sum local = 6.20112e-06, global = -2.79487e-09, cumulative = 0.000547561
ExecutionTime = 3.77 s  ClockTime = 3 s

Time = 118

smoothSolver:  Solving for Ux, Initial residual = 0.00138142, Final residual = 3.56974e-05, No Iterations 2
smoothSolver:  Solving for Uy, Initial residual = 0.00143538, Final residual = 3.63662e-05, No Iterations 2
smoothSolver:  Solving for Uz, Initial residual = 1.04613e-05, Final residual = 1.53253e-06, No Iterations 1
GAMG:  Solving for p, Initial residual = 4.23214e-06, Final residual = 8.98643e-07, No Iterations 2
time step continuity errors : sum local = 5.69955e-06, global = 5.44469e-08, cumulative = 0.000547616
ExecutionTime = 3.79 s  ClockTime = 3 s

Time = 119

smoothSolver:  Solving for Ux, Initial residual = 0.000943939, Final residual = 2.76629e-05, No Iterations 2
smoothSolver:  Solving for Uy, Initial residual = 0.000999093, Final residual = 3.03979e-05, No Iterations 2
smoothSolver:  Solving for Uz, Initial residual = 6.42089e-06, Final residual = 6.42089e-06, No Iterations 0
GAMG:  Solving for p, Initial residual = 4.74321e-06, Final residual = 8.42799e-07, No Iterations 2
time step continuity errors : sum local = 5.34536e-06, global = -1.86933e-09, cumulative = 0.000547614
ExecutionTime = 3.82 s  ClockTime = 3 s

Time = 120

smoothSolver:  Solving for Ux, Initial residual = 0.000933824, Final residual = 2.51786e-05, No Iterations 2
smoothSolver:  Solving for Uy, Initial residual = 0.000972985, Final residual = 2.75254e-05, No Iterations 2
smoothSolver:  Solving for Uz, Initial residual = 6.64236e-06, Final residual = 6.64236e-06, No Iterations 0
GAMG:  Solving for p, Initial residual = 4.66213e-06, Final residual = 7.76014e-07, No Iterations 2
time step continuity errors : sum local = 4.92179e-06, global = -7.88661e-09, cumulative = 0.000547606
ExecutionTime = 3.84 s  ClockTime = 3 s

Time = 121

smoothSolver:  Solving for Ux, Initial residual = 0.00094459, Final residual = 2.78319e-05, No Iterations 2
smoothSolver:  Solving for Uy, Initial residual = 0.000977896, Final residual = 2.86636e-05, No Iterations 2
smoothSolver:  Solving for Uz, Initial residual = 6.96271e-06, Final residual = 6.96271e-06, No Iterations 0
GAMG:  Solving for p, Initial residual = 4.52576e-06, Final residual = 7.39972e-07, No Iterations 2
time step continuity errors : sum local = 4.6932e-06, global = 4.30923e-09, cumulative = 0.00054761
ExecutionTime = 3.86 s  ClockTime = 3 s

Time = 122

smoothSolver:  Solving for Ux, Initial residual = 0.000944097, Final residual = 2.89175e-05, No Iterations 2
smoothSolver:  Solving for Uy, Initial residual = 0.00098225, Final residual = 3.02648e-05, No Iterations 2
smoothSolver:  Solving for Uz, Initial residual = 7.39704e-06, Final residual = 7.39704e-06, No Iterations 0
GAMG:  Solving for p, Initial residual = 4.51028e-06, Final residual = 7.53893e-07, No Iterations 2
time step continuity errors : sum local = 4.78151e-06, global = -9.13286e-09, cumulative = 0.000547601
ExecutionTime = 3.89 s  ClockTime = 3 s

Time = 123

smoothSolver:  Solving for Ux, Initial residual = 0.000964144, Final residual = 2.99136e-05, No Iterations 2
smoothSolver:  Solving for Uy, Initial residual = 0.00100604, Final residual = 3.20042e-05, No Iterations 2
smoothSolver:  Solving for Uz, Initial residual = 7.87872e-06, Final residual = 7.87872e-06, No Iterations 0
GAMG:  Solving for p, Initial residual = 4.78182e-06, Final residual = 7.6301e-07, No Iterations 2
time step continuity errors : sum local = 4.83933e-06, global = -2.26951e-08, cumulative = 0.000547578
ExecutionTime = 3.91 s  ClockTime = 3 s

Time = 124

smoothSolver:  Solving for Ux, Initial residual = 0.00102566, Final residual = 2.74178e-05, No Iterations 2
smoothSolver:  Solving for Uy, Initial residual = 0.00106687, Final residual = 3.03006e-05, No Iterations 2
smoothSolver:  Solving for Uz, Initial residual = 8.39682e-06, Final residual = 8.39682e-06, No Iterations 0
GAMG:  Solving for p, Initial residual = 5.2015e-06, Final residual = 8.32375e-07, No Iterations 2
time step continuity errors : sum local = 5.27928e-06, global = -2.04804e-08, cumulative = 0.000547558
ExecutionTime = 3.93 s  ClockTime = 3 s

Time = 125

smoothSolver:  Solving for Ux, Initial residual = 0.00112282, Final residual = 3.26138e-05, No Iterations 2
smoothSolver:  Solving for Uy, Initial residual = 0.00116289, Final residual = 3.38105e-05, No Iterations 2
smoothSolver:  Solving for Uz, Initial residual = 8.90304e-06, Final residual = 8.90304e-06, No Iterations 0
GAMG:  Solving for p, Initial residual = 5.68435e-06, Final residual = 8.75858e-07, No Iterations 2
time step continuity errors : sum local = 5.55506e-06, global = -2.09628e-08, cumulative = 0.000547537
ExecutionTime = 3.94 s  ClockTime = 4 s

Time = 126

smoothSolver:  Solving for Ux, Initial residual = 0.0012254, Final residual = 3.69593e-05, No Iterations 2
smoothSolver:  Solving for Uy, Initial residual = 0.00126901, Final residual = 3.84554e-05, No Iterations 2
smoothSolver:  Solving for Uz, Initial residual = 9.42315e-06, Final residual = 9.42315e-06, No Iterations 0
GAMG:  Solving for p, Initial residual = 6.03819e-06, Final residual = 9.30033e-07, No Iterations 2
time step continuity errors : sum local = 5.89866e-06, global = -2.6996e-08, cumulative = 0.00054751
ExecutionTime = 3.97 s  ClockTime = 4 s

Time = 127

smoothSolver:  Solving for Ux, Initial residual = 0.00132202, Final residual = 3.90459e-05, No Iterations 2
smoothSolver:  Solving for Uy, Initial residual = 0.00137133, Final residual = 4.20046e-05, No Iterations 2
smoothSolver:  Solving for Uz, Initial residual = 1.00052e-05, Final residual = 1.71621e-06, No Iterations 1
GAMG:  Solving for p, Initial residual = 4.1931e-06, Final residual = 8.95135e-07, No Iterations 2
time step continuity errors : sum local = 5.67732e-06, global = 2.14743e-08, cumulative = 0.000547531
ExecutionTime = 3.99 s  ClockTime = 4 s

Time = 128

smoothSolver:  Solving for Ux, Initial residual = 0.000917691, Final residual = 3.10868e-05, No Iterations 2
smoothSolver:  Solving for Uy, Initial residual = 0.000968049, Final residual = 3.31699e-05, No Iterations 2
smoothSolver:  Solving for Uz, Initial residual = 6.11925e-06, Final residual = 6.11925e-06, No Iterations 0
GAMG:  Solving for p, Initial residual = 4.64712e-06, Final residual = 8.05943e-07, No Iterations 2
time step continuity errors : sum local = 5.11162e-06, global = 1.07311e-08, cumulative = 0.000547542
ExecutionTime = 4.01 s  ClockTime = 4 s

Time = 129

smoothSolver:  Solving for Ux, Initial residual = 0.00088559, Final residual = 2.81772e-05, No Iterations 2
smoothSolver:  Solving for Uy, Initial residual = 0.000931483, Final residual = 2.94475e-05, No Iterations 2
smoothSolver:  Solving for Uz, Initial residual = 6.35828e-06, Final residual = 6.35828e-06, No Iterations 0
GAMG:  Solving for p, Initial residual = 4.35823e-06, Final residual = 7.34335e-07, No Iterations 2
time step continuity errors : sum local = 4.65745e-06, global = 2.17031e-08, cumulative = 0.000547564
ExecutionTime = 4.04 s  ClockTime = 4 s

Time = 130

smoothSolver:  Solving for Ux, Initial residual = 0.000861089, Final residual = 2.56233e-05, No Iterations 2
smoothSolver:  Solving for Uy, Initial residual = 0.000894234, Final residual = 2.74722e-05, No Iterations 2
smoothSolver:  Solving for Uz, Initial residual = 6.56098e-06, Final residual = 6.56098e-06, No Iterations 0
GAMG:  Solving for p, Initial residual = 4.1522e-06, Final residual = 6.73295e-07, No Iterations 2
time step continuity errors : sum local = 4.27032e-06, global = 1.7247e-08, cumulative = 0.000547581
ExecutionTime = 4.06 s  ClockTime = 4 s

Time = 131

smoothSolver:  Solving for Ux, Initial residual = 0.000833983, Final residual = 2.21241e-05, No Iterations 2
smoothSolver:  Solving for Uy, Initial residual = 0.000875591, Final residual = 2.43254e-05, No Iterations 2
smoothSolver:  Solving for Uz, Initial residual = 6.92587e-06, Final residual = 6.92587e-06, No Iterations 0
GAMG:  Solving for p, Initial residual = 4.10111e-06, Final residual = 6.40465e-07, No Iterations 2
time step continuity errors : sum local = 4.06211e-06, global = -5.03959e-09, cumulative = 0.000547576
ExecutionTime = 4.08 s  ClockTime = 4 s

Time = 132

smoothSolver:  Solving for Ux, Initial residual = 0.000849037, Final residual = 2.18158e-05, No Iterations 2
smoothSolver:  Solving for Uy, Initial residual = 0.000891999, Final residual = 2.32453e-05, No Iterations 2
smoothSolver:  Solving for Uz, Initial residual = 7.43818e-06, Final residual = 7.43818e-06, No Iterations 0
GAMG:  Solving for p, Initial residual = 4.35469e-06, Final residual = 6.42817e-07, No Iterations 2
time step continuity errors : sum local = 4.07702e-06, global = -2.10835e-08, cumulative = 0.000547555
ExecutionTime = 4.11 s  ClockTime = 4 s

Time = 133

smoothSolver:  Solving for Ux, Initial residual = 0.000916251, Final residual = 2.39103e-05, No Iterations 2
smoothSolver:  Solving for Uy, Initial residual = 0.000966148, Final residual = 2.4748e-05, No Iterations 2
smoothSolver:  Solving for Uz, Initial residual = 7.82706e-06, Final residual = 7.82706e-06, No Iterations 0
GAMG:  Solving for p, Initial residual = 4.74063e-06, Final residual = 6.23909e-07, No Iterations 2
time step continuity errors : sum local = 3.9571e-06, global = -1.58397e-08, cumulative = 0.000547539
ExecutionTime = 4.12 s  ClockTime = 4 s

Time = 134

smoothSolver:  Solving for Ux, Initial residual = 0.00102315, Final residual = 2.53224e-05, No Iterations 2
smoothSolver:  Solving for Uy, Initial residual = 0.00108831, Final residual = 2.75334e-05, No Iterations 2
smoothSolver:  Solving for Uz, Initial residual = 8.27902e-06, Final residual = 8.27902e-06, No Iterations 0
GAMG:  Solving for p, Initial residual = 5.10835e-06, Final residual = 6.51735e-07, No Iterations 2
time step continuity errors : sum local = 4.13359e-06, global = -3.56315e-09, cumulative = 0.000547535
ExecutionTime = 4.14 s  ClockTime = 4 s

Time = 135

smoothSolver:  Solving for Ux, Initial residual = 0.00111203, Final residual = 2.6903e-05, No Iterations 2
smoothSolver:  Solving for Uy, Initial residual = 0.0011764, Final residual = 2.93112e-05, No Iterations 2
smoothSolver:  Solving for Uz, Initial residual = 8.76118e-06, Final residual = 8.76118e-06, No Iterations 0
GAMG:  Solving for p, Initial residual = 5.38511e-06, Final residual = 6.7879e-07, No Iterations 2
time step continuity errors : sum local = 4.30517e-06, global = 4.89999e-09, cumulative = 0.00054754
ExecutionTime = 4.18 s  ClockTime = 4 s

Time = 136

smoothSolver:  Solving for Ux, Initial residual = 0.00116832, Final residual = 2.81777e-05, No Iterations 2
[...]
ExecutionTime = 47.95 s  ClockTime = 48 s

Time = 1967

smoothSolver:  Solving for Ux, Initial residual = 0.00119507, Final residual = 2.37078e-05, No Iterations 2
smoothSolver:  Solving for Uy, Initial residual = 0.0011923, Final residual = 2.39466e-05, No Iterations 2
smoothSolver:  Solving for Uz, Initial residual = 9.72938e-06, Final residual = 9.72938e-06, No Iterations 0
GAMG:  Solving for p, Initial residual = 6.81143e-06, Final residual = 8.72797e-07, No Iterations 2
time step continuity errors : sum local = 5.53553e-06, global = 2.73825e-07, cumulative = 0.000536684
ExecutionTime = 47.97 s  ClockTime = 48 s

Time = 1968

smoothSolver:  Solving for Ux, Initial residual = 0.00126718, Final residual = 2.51116e-05, No Iterations 2
smoothSolver:  Solving for Uy, Initial residual = 0.00126198, Final residual = 2.53637e-05, No Iterations 2
smoothSolver:  Solving for Uz, Initial residual = 1.01593e-05, Final residual = 1.27502e-06, No Iterations 1
GAMG:  Solving for p, Initial residual = 5.15225e-06, Final residual = 8.06375e-07, No Iterations 2
time step continuity errors : sum local = 5.1143e-06, global = -6.74977e-08, cumulative = 0.000536616
ExecutionTime = 48 s  ClockTime = 48 s

Time = 1969

smoothSolver:  Solving for Ux, Initial residual = 0.000922147, Final residual = 1.91993e-05, No Iterations 2
smoothSolver:  Solving for Uy, Initial residual = 0.000933384, Final residual = 1.96422e-05, No Iterations 2
smoothSolver:  Solving for Uz, Initial residual = 6.67522e-06, Final residual = 6.67522e-06, No Iterations 0
GAMG:  Solving for p, Initial residual = 5.78154e-06, Final residual = 7.63789e-07, No Iterations 2
time step continuity errors : sum local = 4.84427e-06, global = -1.92311e-07, cumulative = 0.000536424
ExecutionTime = 48.02 s  ClockTime = 48 s

Time = 1970

smoothSolver:  Solving for Ux, Initial residual = 0.000928666, Final residual = 1.88629e-05, No Iterations 2
smoothSolver:  Solving for Uy, Initial residual = 0.000944632, Final residual = 1.96079e-05, No Iterations 2
smoothSolver:  Solving for Uz, Initial residual = 6.67398e-06, Final residual = 6.67398e-06, No Iterations 0
GAMG:  Solving for p, Initial residual = 5.50304e-06, Final residual = 7.46572e-07, No Iterations 2
time step continuity errors : sum local = 4.73511e-06, global = -2.90235e-07, cumulative = 0.000536134
ExecutionTime = 48.05 s  ClockTime = 48 s

Time = 1971

smoothSolver:  Solving for Ux, Initial residual = 0.000928652, Final residual = 1.91977e-05, No Iterations 2
smoothSolver:  Solving for Uy, Initial residual = 0.000929159, Final residual = 1.94561e-05, No Iterations 2
smoothSolver:  Solving for Uz, Initial residual = 6.76101e-06, Final residual = 6.76101e-06, No Iterations 0
GAMG:  Solving for p, Initial residual = 5.2318e-06, Final residual = 7.33232e-07, No Iterations 2
time step continuity errors : sum local = 4.65051e-06, global = -2.91349e-07, cumulative = 0.000535843
ExecutionTime = 48.08 s  ClockTime = 48 s

Time = 1972

smoothSolver:  Solving for Ux, Initial residual = 0.000915123, Final residual = 1.80853e-05, No Iterations 2
smoothSolver:  Solving for Uy, Initial residual = 0.000910112, Final residual = 1.83661e-05, No Iterations 2
smoothSolver:  Solving for Uz, Initial residual = 7.01593e-06, Final residual = 7.01593e-06, No Iterations 0
GAMG:  Solving for p, Initial residual = 4.95486e-06, Final residual = 7.19561e-07, No Iterations 2
time step continuity errors : sum local = 4.56378e-06, global = -1.09662e-07, cumulative = 0.000535733
ExecutionTime = 48.11 s  ClockTime = 48 s

Time = 1973

smoothSolver:  Solving for Ux, Initial residual = 0.000838877, Final residual = 1.70091e-05, No Iterations 2
smoothSolver:  Solving for Uy, Initial residual = 0.000846379, Final residual = 1.74161e-05, No Iterations 2
smoothSolver:  Solving for Uz, Initial residual = 7.2636e-06, Final residual = 7.2636e-06, No Iterations 0
GAMG:  Solving for p, Initial residual = 4.96067e-06, Final residual = 7.13658e-07, No Iterations 2
time step continuity errors : sum local = 4.5263e-06, global = 1.57069e-07, cumulative = 0.00053589
ExecutionTime = 48.14 s  ClockTime = 48 s

Time = 1974

smoothSolver:  Solving for Ux, Initial residual = 0.00083311, Final residual = 1.69174e-05, No Iterations 2
smoothSolver:  Solving for Uy, Initial residual = 0.000838036, Final residual = 1.71948e-05, No Iterations 2
smoothSolver:  Solving for Uz, Initial residual = 7.72257e-06, Final residual = 7.72257e-06, No Iterations 0
GAMG:  Solving for p, Initial residual = 5.27601e-06, Final residual = 7.61473e-07, No Iterations 2
time step continuity errors : sum local = 4.82951e-06, global = 3.25532e-07, cumulative = 0.000536215
ExecutionTime = 48.16 s  ClockTime = 48 s

Time = 1975

smoothSolver:  Solving for Ux, Initial residual = 0.000898495, Final residual = 1.8477e-05, No Iterations 2
smoothSolver:  Solving for Uy, Initial residual = 0.000897333, Final residual = 1.88087e-05, No Iterations 2
smoothSolver:  Solving for Uz, Initial residual = 8.05227e-06, Final residual = 8.05227e-06, No Iterations 0
GAMG:  Solving for p, Initial residual = 5.7674e-06, Final residual = 8.21125e-07, No Iterations 2
time step continuity errors : sum local = 5.20783e-06, global = 3.16807e-07, cumulative = 0.000536532
ExecutionTime = 48.18 s  ClockTime = 48 s

Time = 1976

smoothSolver:  Solving for Ux, Initial residual = 0.00101556, Final residual = 2.03266e-05, No Iterations 2
smoothSolver:  Solving for Uy, Initial residual = 0.00101462, Final residual = 2.06193e-05, No Iterations 2
smoothSolver:  Solving for Uz, Initial residual = 8.34704e-06, Final residual = 8.34704e-06, No Iterations 0
GAMG:  Solving for p, Initial residual = 6.21292e-06, Final residual = 8.28362e-07, No Iterations 2
time step continuity errors : sum local = 5.25375e-06, global = 1.44129e-07, cumulative = 0.000536676
ExecutionTime = 48.21 s  ClockTime = 48 s

Time = 1977

smoothSolver:  Solving for Ux, Initial residual = 0.00106791, Final residual = 2.20091e-05, No Iterations 2
smoothSolver:  Solving for Uy, Initial residual = 0.00108575, Final residual = 2.26678e-05, No Iterations 2
smoothSolver:  Solving for Uz, Initial residual = 8.52601e-06, Final residual = 8.52601e-06, No Iterations 0
GAMG:  Solving for p, Initial residual = 6.52172e-06, Final residual = 8.0841e-07, No Iterations 2
time step continuity errors : sum local = 5.12726e-06, global = -1.17279e-07, cumulative = 0.000536559
ExecutionTime = 48.23 s  ClockTime = 48 s

Time = 1978

smoothSolver:  Solving for Ux, Initial residual = 0.00110489, Final residual = 2.29077e-05, No Iterations 2
smoothSolver:  Solving for Uy, Initial residual = 0.00112728, Final residual = 2.37132e-05, No Iterations 2
smoothSolver:  Solving for Uz, Initial residual = 8.81469e-06, Final residual = 8.81469e-06, No Iterations 0
GAMG:  Solving for p, Initial residual = 6.71233e-06, Final residual = 8.91626e-07, No Iterations 2
time step continuity errors : sum local = 5.65511e-06, global = -3.15973e-07, cumulative = 0.000536243
ExecutionTime = 48.25 s  ClockTime = 48 s

Time = 1979

smoothSolver:  Solving for Ux, Initial residual = 0.00115702, Final residual = 2.43097e-05, No Iterations 2
smoothSolver:  Solving for Uy, Initial residual = 0.00116612, Final residual = 2.47036e-05, No Iterations 2
smoothSolver:  Solving for Uz, Initial residual = 9.27438e-06, Final residual = 9.27438e-06, No Iterations 0
GAMG:  Solving for p, Initial residual = 6.8531e-06, Final residual = 9.54011e-07, No Iterations 2
time step continuity errors : sum local = 6.05083e-06, global = -3.70318e-07, cumulative = 0.000535873
ExecutionTime = 48.27 s  ClockTime = 48 s

Time = 1980

smoothSolver:  Solving for Ux, Initial residual = 0.00120586, Final residual = 2.45795e-05, No Iterations 2
smoothSolver:  Solving for Uy, Initial residual = 0.00120547, Final residual = 2.50211e-05, No Iterations 2
smoothSolver:  Solving for Uz, Initial residual = 9.71886e-06, Final residual = 9.71886e-06, No Iterations 0
GAMG:  Solving for p, Initial residual = 7.03891e-06, Final residual = 9.75788e-07, No Iterations 2
time step continuity errors : sum local = 6.18894e-06, global = -2.50179e-07, cumulative = 0.000535623
ExecutionTime = 48.3 s  ClockTime = 48 s

Time = 1981

smoothSolver:  Solving for Ux, Initial residual = 0.00123487, Final residual = 2.52597e-05, No Iterations 2
smoothSolver:  Solving for Uy, Initial residual = 0.00124765, Final residual = 2.56621e-05, No Iterations 2
smoothSolver:  Solving for Uz, Initial residual = 1.01484e-05, Final residual = 1.30617e-06, No Iterations 1
GAMG:  Solving for p, Initial residual = 5.10491e-06, Final residual = 8.37203e-07, No Iterations 2
time step continuity errors : sum local = 5.30991e-06, global = 3.70321e-07, cumulative = 0.000535993
ExecutionTime = 48.32 s  ClockTime = 48 s

Time = 1982

smoothSolver:  Solving for Ux, Initial residual = 0.000866677, Final residual = 1.8306e-05, No Iterations 2
smoothSolver:  Solving for Uy, Initial residual = 0.000888075, Final residual = 1.89057e-05, No Iterations 2
smoothSolver:  Solving for Uz, Initial residual = 6.79771e-06, Final residual = 6.79771e-06, No Iterations 0
GAMG:  Solving for p, Initial residual = 5.58215e-06, Final residual = 7.67753e-07, No Iterations 2
time step continuity errors : sum local = 4.86935e-06, global = 1.73853e-07, cumulative = 0.000536167
ExecutionTime = 48.34 s  ClockTime = 48 s

Time = 1983

smoothSolver:  Solving for Ux, Initial residual = 0.000881863, Final residual = 1.87443e-05, No Iterations 2
smoothSolver:  Solving for Uy, Initial residual = 0.000903087, Final residual = 1.95123e-05, No Iterations 2
smoothSolver:  Solving for Uz, Initial residual = 6.80864e-06, Final residual = 6.80864e-06, No Iterations 0
GAMG:  Solving for p, Initial residual = 5.49992e-06, Final residual = 7.31807e-07, No Iterations 2
time step continuity errors : sum local = 4.64136e-06, global = 1.78747e-07, cumulative = 0.000536346
ExecutionTime = 48.36 s  ClockTime = 48 s

Time = 1984

smoothSolver:  Solving for Ux, Initial residual = 0.000921129, Final residual = 1.88744e-05, No Iterations 2
smoothSolver:  Solving for Uy, Initial residual = 0.000935445, Final residual = 1.951e-05, No Iterations 2
smoothSolver:  Solving for Uz, Initial residual = 6.93478e-06, Final residual = 6.93478e-06, No Iterations 0
GAMG:  Solving for p, Initial residual = 5.38302e-06, Final residual = 7.17449e-07, No Iterations 2
time step continuity errors : sum local = 4.55031e-06, global = 1.90973e-07, cumulative = 0.000536537
ExecutionTime = 48.39 s  ClockTime = 48 s

Time = 1985

smoothSolver:  Solving for Ux, Initial residual = 0.000908695, Final residual = 1.8725e-05, No Iterations 2
smoothSolver:  Solving for Uy, Initial residual = 0.000928512, Final residual = 1.92714e-05, No Iterations 2
smoothSolver:  Solving for Uz, Initial residual = 7.16105e-06, Final residual = 7.16105e-06, No Iterations 0
GAMG:  Solving for p, Initial residual = 5.20302e-06, Final residual = 7.29998e-07, No Iterations 2
time step continuity errors : sum local = 4.62994e-06, global = -2.86295e-08, cumulative = 0.000536508
ExecutionTime = 48.41 s  ClockTime = 48 s

Time = 1986

smoothSolver:  Solving for Ux, Initial residual = 0.000866661, Final residual = 1.77647e-05, No Iterations 2
smoothSolver:  Solving for Uy, Initial residual = 0.000885976, Final residual = 1.83989e-05, No Iterations 2
smoothSolver:  Solving for Uz, Initial residual = 7.57789e-06, Final residual = 7.57789e-06, No Iterations 0
GAMG:  Solving for p, Initial residual = 5.25792e-06, Final residual = 7.6585e-07, No Iterations 2
time step continuity errors : sum local = 4.85738e-06, global = -2.80071e-07, cumulative = 0.000536228
ExecutionTime = 48.44 s  ClockTime = 48 s

Time = 1987

smoothSolver:  Solving for Ux, Initial residual = 0.000882404, Final residual = 1.81571e-05, No Iterations 2
smoothSolver:  Solving for Uy, Initial residual = 0.000896271, Final residual = 1.86019e-05, No Iterations 2
smoothSolver:  Solving for Uz, Initial residual = 8e-06, Final residual = 8e-06, No Iterations 0
GAMG:  Solving for p, Initial residual = 5.55518e-06, Final residual = 8.2778e-07, No Iterations 2
time step continuity errors : sum local = 5.25021e-06, global = -3.45217e-07, cumulative = 0.000535883
ExecutionTime = 48.46 s  ClockTime = 48 s

Time = 1988

smoothSolver:  Solving for Ux, Initial residual = 0.000957216, Final residual = 1.95561e-05, No Iterations 2
smoothSolver:  Solving for Uy, Initial residual = 0.000966341, Final residual = 1.98666e-05, No Iterations 2
smoothSolver:  Solving for Uz, Initial residual = 8.46183e-06, Final residual = 8.46183e-06, No Iterations 0
GAMG:  Solving for p, Initial residual = 6.03562e-06, Final residual = 8.62747e-07, No Iterations 2
time step continuity errors : sum local = 5.47198e-06, global = -2.73351e-07, cumulative = 0.000535609
ExecutionTime = 48.49 s  ClockTime = 48 s

Time = 1989

smoothSolver:  Solving for Ux, Initial residual = 0.00105689, Final residual = 2.11296e-05, No Iterations 2
smoothSolver:  Solving for Uy, Initial residual = 0.00106991, Final residual = 2.15337e-05, No Iterations 2
smoothSolver:  Solving for Uz, Initial residual = 8.85244e-06, Final residual = 8.85244e-06, No Iterations 0
GAMG:  Solving for p, Initial residual = 6.51443e-06, Final residual = 8.86083e-07, No Iterations 2
time step continuity errors : sum local = 5.61996e-06, global = -1.50146e-07, cumulative = 0.000535459
ExecutionTime = 48.52 s  ClockTime = 48 s

Time = 1990

smoothSolver:  Solving for Ux, Initial residual = 0.00114835, Final residual = 2.3069e-05, No Iterations 2
smoothSolver:  Solving for Uy, Initial residual = 0.00117043, Final residual = 2.36863e-05, No Iterations 2
smoothSolver:  Solving for Uz, Initial residual = 9.2074e-06, Final residual = 9.2074e-06, No Iterations 0
GAMG:  Solving for p, Initial residual = 6.91892e-06, Final residual = 8.84196e-07, No Iterations 2
time step continuity errors : sum local = 5.60793e-06, global = 3.24661e-08, cumulative = 0.000535492
ExecutionTime = 48.54 s  ClockTime = 48 s

Time = 1991

smoothSolver:  Solving for Ux, Initial residual = 0.00120516, Final residual = 2.43443e-05, No Iterations 2
smoothSolver:  Solving for Uy, Initial residual = 0.00123318, Final residual = 2.52903e-05, No Iterations 2
smoothSolver:  Solving for Uz, Initial residual = 9.61658e-06, Final residual = 9.61658e-06, No Iterations 0
GAMG:  Solving for p, Initial residual = 7.19758e-06, Final residual = 9.34617e-07, No Iterations 2
time step continuity errors : sum local = 5.92767e-06, global = 2.3929e-07, cumulative = 0.000535731
ExecutionTime = 48.56 s  ClockTime = 48 s

Time = 1992

smoothSolver:  Solving for Ux, Initial residual = 0.00126217, Final residual = 2.57975e-05, No Iterations 2
smoothSolver:  Solving for Uy, Initial residual = 0.00128444, Final residual = 2.6513e-05, No Iterations 2
smoothSolver:  Solving for Uz, Initial residual = 1.0057e-05, Final residual = 1.28391e-06, No Iterations 1
GAMG:  Solving for p, Initial residual = 5.21835e-06, Final residual = 8.96356e-07, No Iterations 2
time step continuity errors : sum local = 5.68496e-06, global = 6.23491e-07, cumulative = 0.000536354
ExecutionTime = 48.59 s  ClockTime = 48 s

Time = 1993

smoothSolver:  Solving for Ux, Initial residual = 0.000909717, Final residual = 1.94237e-05, No Iterations 2
smoothSolver:  Solving for Uy, Initial residual = 0.000930305, Final residual = 1.97525e-05, No Iterations 2
smoothSolver:  Solving for Uz, Initial residual = 6.75419e-06, Final residual = 6.75419e-06, No Iterations 0
GAMG:  Solving for p, Initial residual = 5.57477e-06, Final residual = 7.41362e-07, No Iterations 2
time step continuity errors : sum local = 4.70197e-06, global = -1.59724e-07, cumulative = 0.000536195
ExecutionTime = 48.62 s  ClockTime = 48 s

Time = 1994

smoothSolver:  Solving for Ux, Initial residual = 0.000875579, Final residual = 1.80345e-05, No Iterations 2
smoothSolver:  Solving for Uy, Initial residual = 0.000908722, Final residual = 1.9195e-05, No Iterations 2
smoothSolver:  Solving for Uz, Initial residual = 6.74521e-06, Final residual = 6.74521e-06, No Iterations 0
GAMG:  Solving for p, Initial residual = 5.26999e-06, Final residual = 7.32969e-07, No Iterations 2
time step continuity errors : sum local = 4.64881e-06, global = -2.43705e-07, cumulative = 0.000535951
ExecutionTime = 48.64 s  ClockTime = 48 s

Time = 1995

smoothSolver:  Solving for Ux, Initial residual = 0.000867646, Final residual = 1.77247e-05, No Iterations 2
smoothSolver:  Solving for Uy, Initial residual = 0.000886747, Final residual = 1.84376e-05, No Iterations 2
smoothSolver:  Solving for Uz, Initial residual = 6.80296e-06, Final residual = 6.80296e-06, No Iterations 0
GAMG:  Solving for p, Initial residual = 5.07272e-06, Final residual = 7.01521e-07, No Iterations 2
time step continuity errors : sum local = 4.44938e-06, global = -1.09574e-07, cumulative = 0.000535841
ExecutionTime = 48.66 s  ClockTime = 48 s

Time = 1996

smoothSolver:  Solving for Ux, Initial residual = 0.000849959, Final residual = 1.7438e-05, No Iterations 2
smoothSolver:  Solving for Uy, Initial residual = 0.000868447, Final residual = 1.79926e-05, No Iterations 2
smoothSolver:  Solving for Uz, Initial residual = 7.18067e-06, Final residual = 7.18067e-06, No Iterations 0
GAMG:  Solving for p, Initial residual = 5.04599e-06, Final residual = 7.50848e-07, No Iterations 2
time step continuity errors : sum local = 4.76226e-06, global = -2.9191e-07, cumulative = 0.000535549
ExecutionTime = 48.69 s  ClockTime = 48 s

Time = 1997

smoothSolver:  Solving for Ux, Initial residual = 0.000848619, Final residual = 1.74353e-05, No Iterations 2
smoothSolver:  Solving for Uy, Initial residual = 0.000853524, Final residual = 1.77414e-05, No Iterations 2
smoothSolver:  Solving for Uz, Initial residual = 7.55061e-06, Final residual = 7.55061e-06, No Iterations 0
GAMG:  Solving for p, Initial residual = 5.27059e-06, Final residual = 8.23866e-07, No Iterations 2
time step continuity errors : sum local = 5.22538e-06, global = -3.90175e-07, cumulative = 0.000535159
ExecutionTime = 48.72 s  ClockTime = 48 s

Time = 1998

smoothSolver:  Solving for Ux, Initial residual = 0.000900574, Final residual = 1.80368e-05, No Iterations 2
smoothSolver:  Solving for Uy, Initial residual = 0.000908143, Final residual = 1.84191e-05, No Iterations 2
smoothSolver:  Solving for Uz, Initial residual = 7.88143e-06, Final residual = 7.88143e-06, No Iterations 0
GAMG:  Solving for p, Initial residual = 5.60963e-06, Final residual = 8.39526e-07, No Iterations 2
time step continuity errors : sum local = 5.32469e-06, global = -1.59043e-07, cumulative = 0.000535
ExecutionTime = 48.75 s  ClockTime = 48 s

Time = 1999

smoothSolver:  Solving for Ux, Initial residual = 0.000931534, Final residual = 1.91257e-05, No Iterations 2
smoothSolver:  Solving for Uy, Initial residual = 0.000942371, Final residual = 1.96463e-05, No Iterations 2
smoothSolver:  Solving for Uz, Initial residual = 8.11701e-06, Final residual = 8.11701e-06, No Iterations 0
GAMG:  Solving for p, Initial residual = 6.0004e-06, Final residual = 8.28783e-07, No Iterations 2
time step continuity errors : sum local = 5.25649e-06, global = 1.33277e-07, cumulative = 0.000535134
ExecutionTime = 48.76 s  ClockTime = 48 s

Time = 2000

smoothSolver:  Solving for Ux, Initial residual = 0.000993854, Final residual = 2.06688e-05, No Iterations 2
smoothSolver:  Solving for Uy, Initial residual = 0.00101275, Final residual = 2.12527e-05, No Iterations 2
smoothSolver:  Solving for Uz, Initial residual = 8.42149e-06, Final residual = 8.42149e-06, No Iterations 0
GAMG:  Solving for p, Initial residual = 6.38155e-06, Final residual = 8.70678e-07, No Iterations 2
time step continuity errors : sum local = 5.52214e-06, global = 2.85747e-07, cumulative = 0.000535419
ExecutionTime = 48.82 s  ClockTime = 48 s

End

Finalising parallel run
